WARNING: physical memory size is smaller than virtual memory size.

*** ChampSim Multicore Out-of-Order Simulator ***
Warmup Instructions: 25000000
Simulation Instructions: 25000000
Number of CPUs: 1
Page size: 4096

Off-chip DRAM Size: 4 GiB Channels: 1 Width: 64-bit Data Race: 800 MT/s
Heartbeat CPU 0 instructions: 10000001 cycles: 2500075 heartbeat IPC: 4 cumulative IPC: 4 (Simulation time: 00 hr 01 min 00 sec)
Heartbeat CPU 0 instructions: 20000001 cycles: 5000075 heartbeat IPC: 4 cumulative IPC: 4 (Simulation time: 00 hr 02 min 09 sec)
Warmup finished CPU 0 instructions: 25000001 cycles: 6250076 cumulative IPC: 4 (Simulation time: 00 hr 02 min 43 sec)
Warmup complete CPU 0 instructions: 25000001 cycles: 6250076 cumulative IPC: 4 (Simulation time: 00 hr 02 min 43 sec)
Heartbeat CPU 0 instructions: 30000001 cycles: 12895150 heartbeat IPC: 1.267 cumulative IPC: 0.7524 (Simulation time: 00 hr 04 min 13 sec)
Heartbeat CPU 0 instructions: 40000000 cycles: 26149611 heartbeat IPC: 0.7545 cumulative IPC: 0.7538 (Simulation time: 00 hr 07 min 05 sec)
Heartbeat CPU 0 instructions: 50000000 cycles: 39340899 heartbeat IPC: 0.7581 cumulative IPC: 0.7555 (Simulation time: 00 hr 09 min 36 sec)
Simulation finished CPU 0 instructions: 25000000 cycles: 33090825 cumulative IPC: 0.7555 (Simulation time: 00 hr 09 min 36 sec)
Simulation complete CPU 0 instructions: 25000000 cycles: 33090825 cumulative IPC: 0.7555 (Simulation time: 00 hr 09 min 36 sec)

ChampSim completed all CPUs

=== Simulation ===
CPU 0 runs ./traces/602.gcc_s-1850B.champsimtrace.xz
Region of Interest Statistics

CPU 0 cumulative IPC: 0.7555 instructions: 25000000 cycles: 33090825
CPU 0 Branch Prediction Accuracy: 87.84% MPKI: 31.17 Average ROB Occupancy at Mispredict: 12.83
Branch type MPKI
BRANCH_DIRECT_JUMP: 0.0119
BRANCH_INDIRECT: 0
BRANCH_CONDITIONAL: 31.2
BRANCH_DIRECT_CALL: 0
BRANCH_INDIRECT_CALL: 0
BRANCH_RETURN: 0

LLC TOTAL        ACCESS:     479374 HIT:       3427 MISS:     475947
LLC LOAD         ACCESS:     100392 HIT:        291 MISS:     100101
LLC RFO          ACCESS:          1 HIT:          0 MISS:          1
LLC PREFETCH     ACCESS:     377193 HIT:       2230 MISS:     374963
LLC WRITE        ACCESS:        623 HIT:        594 MISS:         29
LLC TRANSLATION  ACCESS:       1165 HIT:        312 MISS:        853
LLC PREFETCH REQUESTED:          0 ISSUED:          0 USEFUL:          0 USELESS:          0
LLC AVERAGE MISS LATENCY: 178.5 cycles
cpu0_DTLB TOTAL        ACCESS:    6070732 HIT:    6038845 MISS:      31887
cpu0_DTLB LOAD         ACCESS:    6070732 HIT:    6038845 MISS:      31887
cpu0_DTLB RFO          ACCESS:          0 HIT:          0 MISS:          0
cpu0_DTLB PREFETCH     ACCESS:          0 HIT:          0 MISS:          0
cpu0_DTLB WRITE        ACCESS:          0 HIT:          0 MISS:          0
cpu0_DTLB TRANSLATION  ACCESS:          0 HIT:          0 MISS:          0
cpu0_DTLB PREFETCH REQUESTED:          0 ISSUED:          0 USEFUL:          0 USELESS:          0
cpu0_DTLB AVERAGE MISS LATENCY: 61.02 cycles
cpu0_ITLB TOTAL        ACCESS:          0 HIT:          0 MISS:          0
cpu0_ITLB LOAD         ACCESS:          0 HIT:          0 MISS:          0
cpu0_ITLB RFO          ACCESS:          0 HIT:          0 MISS:          0
cpu0_ITLB PREFETCH     ACCESS:          0 HIT:          0 MISS:          0
cpu0_ITLB WRITE        ACCESS:          0 HIT:          0 MISS:          0
cpu0_ITLB TRANSLATION  ACCESS:          0 HIT:          0 MISS:          0
cpu0_ITLB PREFETCH REQUESTED:          0 ISSUED:          0 USEFUL:          0 USELESS:          0
cpu0_ITLB AVERAGE MISS LATENCY: -nan cycles
cpu0_L1D TOTAL        ACCESS:   13458342 HIT:   10785000 MISS:    2673342
cpu0_L1D LOAD         ACCESS:    5715823 HIT:    4754706 MISS:     961117
cpu0_L1D RFO          ACCESS:          0 HIT:          0 MISS:          0
cpu0_L1D PREFETCH     ACCESS:    5468203 HIT:    3757414 MISS:    1710789
cpu0_L1D WRITE        ACCESS:    2266494 HIT:    2266491 MISS:          3
cpu0_L1D TRANSLATION  ACCESS:       7822 HIT:       6389 MISS:       1433
cpu0_L1D PREFETCH REQUESTED:    6135115 ISSUED:    5468207 USEFUL:     354198 USELESS:      44871
cpu0_L1D AVERAGE MISS LATENCY: 21.61 cycles
cpu0_L1I TOTAL        ACCESS:          0 HIT:          0 MISS:          0
cpu0_L1I LOAD         ACCESS:          0 HIT:          0 MISS:          0
cpu0_L1I RFO          ACCESS:          0 HIT:          0 MISS:          0
cpu0_L1I PREFETCH     ACCESS:          0 HIT:          0 MISS:          0
cpu0_L1I WRITE        ACCESS:          0 HIT:          0 MISS:          0
cpu0_L1I TRANSLATION  ACCESS:          0 HIT:          0 MISS:          0
cpu0_L1I PREFETCH REQUESTED:          0 ISSUED:          0 USEFUL:          0 USELESS:          0
cpu0_L1I AVERAGE MISS LATENCY: -nan cycles
cpu0_L2C TOTAL        ACCESS:    1287696 HIT:     446000 MISS:     841696
cpu0_L2C LOAD         ACCESS:     324213 HIT:     190916 MISS:     133297
cpu0_L2C RFO          ACCESS:          1 HIT:          0 MISS:          1
cpu0_L2C PREFETCH     ACCESS:     961243 HIT:     254010 MISS:     707233
cpu0_L2C WRITE        ACCESS:        806 HIT:        806 MISS:          0
cpu0_L2C TRANSLATION  ACCESS:       1433 HIT:        268 MISS:       1165
cpu0_L2C PREFETCH REQUESTED:     562173 ISSUED:     562173 USEFUL:     144690 USELESS:      67441
cpu0_L2C AVERAGE MISS LATENCY: 106.2 cycles
cpu0_STLB TOTAL        ACCESS:       8099 HIT:        366 MISS:       7733
cpu0_STLB LOAD         ACCESS:       8099 HIT:        366 MISS:       7733
cpu0_STLB RFO          ACCESS:          0 HIT:          0 MISS:          0
cpu0_STLB PREFETCH     ACCESS:          0 HIT:          0 MISS:          0
cpu0_STLB WRITE        ACCESS:          0 HIT:          0 MISS:          0
cpu0_STLB TRANSLATION  ACCESS:          0 HIT:          0 MISS:          0
cpu0_STLB PREFETCH REQUESTED:          0 ISSUED:          0 USEFUL:          0 USELESS:          0
cpu0_STLB AVERAGE MISS LATENCY: 248.6 cycles

DRAM Statistics

Channel 0 RQ ROW_BUFFER_HIT:     420370
  ROW_BUFFER_MISS:      27436
 AVG DBUS CONGESTED CYCLE: 3.89
WQ ROW_BUFFER_HIT: Channel 0 
  ROW_BUFFER_MISS:        360
  FULL:        261
