WARNING: physical memory size is smaller than virtual memory size.

*** ChampSim Multicore Out-of-Order Simulator ***
Warmup Instructions: 25000000
Simulation Instructions: 25000000
Number of CPUs: 1
Page size: 4096

Off-chip DRAM Size: 4 GiB Channels: 1 Width: 64-bit Data Race: 800 MT/s
Heartbeat CPU 0 instructions: 10000000 cycles: 3099480 heartbeat IPC: 3.226 cumulative IPC: 3.226 (Simulation time: 00 hr 01 min 07 sec)
Heartbeat CPU 0 instructions: 20000003 cycles: 6152965 heartbeat IPC: 3.275 cumulative IPC: 3.25 (Simulation time: 00 hr 02 min 22 sec)
Warmup finished CPU 0 instructions: 25000001 cycles: 7641608 cumulative IPC: 3.272 (Simulation time: 00 hr 03 min 00 sec)
Warmup complete CPU 0 instructions: 25000001 cycles: 7641608 cumulative IPC: 3.272 (Simulation time: 00 hr 03 min 00 sec)
Heartbeat CPU 0 instructions: 30000000 cycles: 17098564 heartbeat IPC: 0.9136 cumulative IPC: 0.5287 (Simulation time: 00 hr 05 min 15 sec)
Heartbeat CPU 0 instructions: 40000000 cycles: 36180434 heartbeat IPC: 0.5241 cumulative IPC: 0.5256 (Simulation time: 00 hr 09 min 18 sec)
Heartbeat CPU 0 instructions: 50000000 cycles: 60330791 heartbeat IPC: 0.4141 cumulative IPC: 0.4745 (Simulation time: 00 hr 13 min 43 sec)
Simulation finished CPU 0 instructions: 25000003 cycles: 52689185 cumulative IPC: 0.4745 (Simulation time: 00 hr 13 min 43 sec)
Simulation complete CPU 0 instructions: 25000003 cycles: 52689185 cumulative IPC: 0.4745 (Simulation time: 00 hr 13 min 43 sec)

ChampSim completed all CPUs

=== Simulation ===
CPU 0 runs ./traces/605.mcf_s-484B.champsimtrace.xz
Region of Interest Statistics

CPU 0 cumulative IPC: 0.4745 instructions: 25000003 cycles: 52689185
CPU 0 Branch Prediction Accuracy: 96.99% MPKI: 2.864 Average ROB Occupancy at Mispredict: 78.94
Branch type MPKI
BRANCH_DIRECT_JUMP: 0
BRANCH_INDIRECT: 0
BRANCH_CONDITIONAL: 2.86
BRANCH_DIRECT_CALL: 0
BRANCH_INDIRECT_CALL: 0
BRANCH_RETURN: 0

LLC TOTAL        ACCESS:     899375 HIT:     173302 MISS:     726073
LLC LOAD         ACCESS:     407612 HIT:      20776 MISS:     386836
LLC RFO          ACCESS:      47357 HIT:         41 MISS:      47316
LLC PREFETCH     ACCESS:     297840 HIT:       8379 MISS:     289461
LLC WRITE        ACCESS:     143243 HIT:     142169 MISS:       1074
LLC TRANSLATION  ACCESS:       3323 HIT:       1937 MISS:       1386
LLC PREFETCH REQUESTED:          0 ISSUED:          0 USEFUL:          0 USELESS:          0
LLC AVERAGE MISS LATENCY: 701.6 cycles
cpu0_DTLB TOTAL        ACCESS:    7874375 HIT:    7760456 MISS:     113919
cpu0_DTLB LOAD         ACCESS:    7874375 HIT:    7760456 MISS:     113919
cpu0_DTLB RFO          ACCESS:          0 HIT:          0 MISS:          0
cpu0_DTLB PREFETCH     ACCESS:          0 HIT:          0 MISS:          0
cpu0_DTLB WRITE        ACCESS:          0 HIT:          0 MISS:          0
cpu0_DTLB TRANSLATION  ACCESS:          0 HIT:          0 MISS:          0
cpu0_DTLB PREFETCH REQUESTED:          0 ISSUED:          0 USEFUL:          0 USELESS:          0
cpu0_DTLB AVERAGE MISS LATENCY: 28.67 cycles
cpu0_ITLB TOTAL        ACCESS:          0 HIT:          0 MISS:          0
cpu0_ITLB LOAD         ACCESS:          0 HIT:          0 MISS:          0
cpu0_ITLB RFO          ACCESS:          0 HIT:          0 MISS:          0
cpu0_ITLB PREFETCH     ACCESS:          0 HIT:          0 MISS:          0
cpu0_ITLB WRITE        ACCESS:          0 HIT:          0 MISS:          0
cpu0_ITLB TRANSLATION  ACCESS:          0 HIT:          0 MISS:          0
cpu0_ITLB PREFETCH REQUESTED:          0 ISSUED:          0 USEFUL:          0 USELESS:          0
cpu0_ITLB AVERAGE MISS LATENCY: -nan cycles
cpu0_L1D TOTAL        ACCESS:   13386521 HIT:   12482132 MISS:     904389
cpu0_L1D LOAD         ACCESS:    4614866 HIT:    4098921 MISS:     515945
cpu0_L1D RFO          ACCESS:          0 HIT:          0 MISS:          0
cpu0_L1D PREFETCH     ACCESS:    1558399 HIT:    1396958 MISS:     161441
cpu0_L1D WRITE        ACCESS:    7197971 HIT:    6979656 MISS:     218315
cpu0_L1D TRANSLATION  ACCESS:      15285 HIT:       6597 MISS:       8688
cpu0_L1D PREFETCH REQUESTED:   19000402 ISSUED:    1558397 USEFUL:      12656 USELESS:      73758
cpu0_L1D AVERAGE MISS LATENCY: 451.5 cycles
cpu0_L1I TOTAL        ACCESS:          0 HIT:          0 MISS:          0
cpu0_L1I LOAD         ACCESS:          0 HIT:          0 MISS:          0
cpu0_L1I RFO          ACCESS:          0 HIT:          0 MISS:          0
cpu0_L1I PREFETCH     ACCESS:          0 HIT:          0 MISS:          0
cpu0_L1I WRITE        ACCESS:          0 HIT:          0 MISS:          0
cpu0_L1I TRANSLATION  ACCESS:          0 HIT:          0 MISS:          0
cpu0_L1I PREFETCH REQUESTED:          0 ISSUED:          0 USEFUL:          0 USELESS:          0
cpu0_L1I AVERAGE MISS LATENCY: -nan cycles
cpu0_L2C TOTAL        ACCESS:    1053521 HIT:     274200 MISS:     779321
cpu0_L2C LOAD         ACCESS:     482603 HIT:      63720 MISS:     418883
cpu0_L2C RFO          ACCESS:      49373 HIT:       2016 MISS:      47357
cpu0_L2C PREFETCH     ACCESS:     353376 HIT:      44308 MISS:     309068
cpu0_L2C WRITE        ACCESS:     159481 HIT:     158791 MISS:        690
cpu0_L2C TRANSLATION  ACCESS:       8688 HIT:       5365 MISS:       3323
cpu0_L2C PREFETCH REQUESTED:     266886 ISSUED:     266886 USEFUL:      71292 USELESS:       8080
cpu0_L2C AVERAGE MISS LATENCY: 574.6 cycles
cpu0_STLB TOTAL        ACCESS:      54653 HIT:      39394 MISS:      15259
cpu0_STLB LOAD         ACCESS:      54653 HIT:      39394 MISS:      15259
cpu0_STLB RFO          ACCESS:          0 HIT:          0 MISS:          0
cpu0_STLB PREFETCH     ACCESS:          0 HIT:          0 MISS:          0
cpu0_STLB WRITE        ACCESS:          0 HIT:          0 MISS:          0
cpu0_STLB TRANSLATION  ACCESS:          0 HIT:          0 MISS:          0
cpu0_STLB PREFETCH REQUESTED:          0 ISSUED:          0 USEFUL:          0 USELESS:          0
cpu0_STLB AVERAGE MISS LATENCY: 315.4 cycles

DRAM Statistics

Channel 0 RQ ROW_BUFFER_HIT:     278724
  ROW_BUFFER_MISS:     345779
 AVG DBUS CONGESTED CYCLE: 3.919
WQ ROW_BUFFER_HIT: Channel 0 
  ROW_BUFFER_MISS:       6787
  FULL:     125987
