WARNING: physical memory size is smaller than virtual memory size.

*** ChampSim Multicore Out-of-Order Simulator ***
Warmup Instructions: 25000000
Simulation Instructions: 25000000
Number of CPUs: 1
Page size: 4096

Off-chip DRAM Size: 4 GiB Channels: 1 Width: 64-bit Data Race: 800 MT/s
Heartbeat CPU 0 instructions: 10000003 cycles: 2500092 heartbeat IPC: 4 cumulative IPC: 4 (Simulation time: 00 hr 01 min 06 sec)
Heartbeat CPU 0 instructions: 20000003 cycles: 5002123 heartbeat IPC: 3.997 cumulative IPC: 3.998 (Simulation time: 00 hr 02 min 16 sec)
Warmup finished CPU 0 instructions: 25000000 cycles: 6252189 cumulative IPC: 3.999 (Simulation time: 00 hr 02 min 49 sec)
Warmup complete CPU 0 instructions: 25000000 cycles: 6252189 cumulative IPC: 3.999 (Simulation time: 00 hr 02 min 49 sec)
Heartbeat CPU 0 instructions: 30000001 cycles: 10265340 heartbeat IPC: 1.9 cumulative IPC: 1.246 (Simulation time: 00 hr 04 min 18 sec)
Heartbeat CPU 0 instructions: 40000000 cycles: 48991411 heartbeat IPC: 0.2582 cumulative IPC: 0.351 (Simulation time: 00 hr 13 min 23 sec)
Heartbeat CPU 0 instructions: 50000003 cycles: 69692883 heartbeat IPC: 0.4831 cumulative IPC: 0.3941 (Simulation time: 00 hr 15 min 53 sec)
Simulation finished CPU 0 instructions: 25000003 cycles: 63440695 cumulative IPC: 0.3941 (Simulation time: 00 hr 15 min 53 sec)
Simulation complete CPU 0 instructions: 25000003 cycles: 63440695 cumulative IPC: 0.3941 (Simulation time: 00 hr 15 min 53 sec)

ChampSim completed all CPUs

=== Simulation ===
CPU 0 runs ./traces/621.wrf_s-6673B.champsimtrace.xz
Region of Interest Statistics

CPU 0 cumulative IPC: 0.3941 instructions: 25000003 cycles: 63440695
CPU 0 Branch Prediction Accuracy: 96.82% MPKI: 2.139 Average ROB Occupancy at Mispredict: 301.2
Branch type MPKI
BRANCH_DIRECT_JUMP: 0.00072
BRANCH_INDIRECT: 0
BRANCH_CONDITIONAL: 2.12
BRANCH_DIRECT_CALL: 0.00672
BRANCH_INDIRECT_CALL: 0
BRANCH_RETURN: 0.0062

LLC TOTAL        ACCESS:     951743 HIT:     289294 MISS:     662449
LLC LOAD         ACCESS:     170764 HIT:      17007 MISS:     153757
LLC RFO          ACCESS:     135078 HIT:       8395 MISS:     126683
LLC PREFETCH     ACCESS:     399439 HIT:      25475 MISS:     373964
LLC WRITE        ACCESS:     245553 HIT:     238177 MISS:       7376
LLC TRANSLATION  ACCESS:        909 HIT:        240 MISS:        669
LLC PREFETCH REQUESTED:          0 ISSUED:          0 USEFUL:          0 USELESS:          0
LLC AVERAGE MISS LATENCY: 1273 cycles
cpu0_DTLB TOTAL        ACCESS:    6207105 HIT:    6139006 MISS:      68099
cpu0_DTLB LOAD         ACCESS:    6207105 HIT:    6139006 MISS:      68099
cpu0_DTLB RFO          ACCESS:          0 HIT:          0 MISS:          0
cpu0_DTLB PREFETCH     ACCESS:          0 HIT:          0 MISS:          0
cpu0_DTLB WRITE        ACCESS:          0 HIT:          0 MISS:          0
cpu0_DTLB TRANSLATION  ACCESS:          0 HIT:          0 MISS:          0
cpu0_DTLB PREFETCH REQUESTED:          0 ISSUED:          0 USEFUL:          0 USELESS:          0
cpu0_DTLB AVERAGE MISS LATENCY: 27.75 cycles
cpu0_ITLB TOTAL        ACCESS:       7244 HIT:       7131 MISS:        113
cpu0_ITLB LOAD         ACCESS:       7244 HIT:       7131 MISS:        113
cpu0_ITLB RFO          ACCESS:          0 HIT:          0 MISS:          0
cpu0_ITLB PREFETCH     ACCESS:          0 HIT:          0 MISS:          0
cpu0_ITLB WRITE        ACCESS:          0 HIT:          0 MISS:          0
cpu0_ITLB TRANSLATION  ACCESS:          0 HIT:          0 MISS:          0
cpu0_ITLB PREFETCH REQUESTED:          0 ISSUED:          0 USEFUL:          0 USELESS:          0
cpu0_ITLB AVERAGE MISS LATENCY: 206.6 cycles
cpu0_L1D TOTAL        ACCESS:   10386573 HIT:    6504133 MISS:    3882440
cpu0_L1D LOAD         ACCESS:    5516413 HIT:    3748708 MISS:    1767705
cpu0_L1D RFO          ACCESS:          0 HIT:          0 MISS:          0
cpu0_L1D PREFETCH     ACCESS:    2998061 HIT:    1692818 MISS:    1305243
cpu0_L1D WRITE        ACCESS:    1864225 HIT:    1058405 MISS:     805820
cpu0_L1D TRANSLATION  ACCESS:       7874 HIT:       4202 MISS:       3672
cpu0_L1D PREFETCH REQUESTED:   16880563 ISSUED:    2998066 USEFUL:     301295 USELESS:      22363
cpu0_L1D AVERAGE MISS LATENCY: 150.4 cycles
cpu0_L1I TOTAL        ACCESS:       9501 HIT:       7825 MISS:       1676
cpu0_L1I LOAD         ACCESS:       9501 HIT:       7825 MISS:       1676
cpu0_L1I RFO          ACCESS:          0 HIT:          0 MISS:          0
cpu0_L1I PREFETCH     ACCESS:          0 HIT:          0 MISS:          0
cpu0_L1I WRITE        ACCESS:          0 HIT:          0 MISS:          0
cpu0_L1I TRANSLATION  ACCESS:          0 HIT:          0 MISS:          0
cpu0_L1I PREFETCH REQUESTED:          0 ISSUED:          0 USEFUL:          0 USELESS:          0
cpu0_L1I AVERAGE MISS LATENCY: 463.3 cycles
cpu0_L2C TOTAL        ACCESS:    1235513 HIT:     486792 MISS:     748721
cpu0_L2C LOAD         ACCESS:     226292 HIT:      44595 MISS:     181697
cpu0_L2C RFO          ACCESS:     162264 HIT:      27159 MISS:     135105
cpu0_L2C PREFETCH     ACCESS:     541790 HIT:     110868 MISS:     430922
cpu0_L2C WRITE        ACCESS:     301795 HIT:     301707 MISS:         88
cpu0_L2C TRANSLATION  ACCESS:       3372 HIT:       2463 MISS:        909
cpu0_L2C PREFETCH REQUESTED:     218161 ISSUED:     218134 USEFUL:      25025 USELESS:      10724
cpu0_L2C AVERAGE MISS LATENCY: 1043 cycles
cpu0_STLB TOTAL        ACCESS:      23599 HIT:      15696 MISS:       7903
cpu0_STLB LOAD         ACCESS:      23599 HIT:      15696 MISS:       7903
cpu0_STLB RFO          ACCESS:          0 HIT:          0 MISS:          0
cpu0_STLB PREFETCH     ACCESS:          0 HIT:          0 MISS:          0
cpu0_STLB WRITE        ACCESS:          0 HIT:          0 MISS:          0
cpu0_STLB TRANSLATION  ACCESS:          0 HIT:          0 MISS:          0
cpu0_STLB PREFETCH REQUESTED:          0 ISSUED:          0 USEFUL:          0 USELESS:          0
cpu0_STLB AVERAGE MISS LATENCY: 348.1 cycles

DRAM Statistics

Channel 0 RQ ROW_BUFFER_HIT:     167984
  ROW_BUFFER_MISS:     388312
 AVG DBUS CONGESTED CYCLE: 3.931
WQ ROW_BUFFER_HIT: Channel 0 
  ROW_BUFFER_MISS:       5651
  FULL:     238144
