WARNING: physical memory size is smaller than virtual memory size.

*** ChampSim Multicore Out-of-Order Simulator ***
Warmup Instructions: 25000000
Simulation Instructions: 25000000
Number of CPUs: 1
Page size: 4096

Off-chip DRAM Size: 4 GiB Channels: 1 Width: 64-bit Data Race: 800 MT/s
Heartbeat CPU 0 instructions: 10000001 cycles: 2500075 heartbeat IPC: 4 cumulative IPC: 4 (Simulation time: 00 hr 00 min 56 sec)
Heartbeat CPU 0 instructions: 20000001 cycles: 5000075 heartbeat IPC: 4 cumulative IPC: 4 (Simulation time: 00 hr 01 min 56 sec)
Warmup finished CPU 0 instructions: 25000001 cycles: 6250076 cumulative IPC: 4 (Simulation time: 00 hr 02 min 27 sec)
Warmup complete CPU 0 instructions: 25000001 cycles: 6250076 cumulative IPC: 4 (Simulation time: 00 hr 02 min 27 sec)
Heartbeat CPU 0 instructions: 30000001 cycles: 9858299 heartbeat IPC: 2.058 cumulative IPC: 1.386 (Simulation time: 00 hr 03 min 25 sec)
Heartbeat CPU 0 instructions: 40000002 cycles: 16928613 heartbeat IPC: 1.414 cumulative IPC: 1.405 (Simulation time: 00 hr 05 min 19 sec)
Heartbeat CPU 0 instructions: 50000000 cycles: 24001101 heartbeat IPC: 1.414 cumulative IPC: 1.408 (Simulation time: 00 hr 07 min 10 sec)
Simulation finished CPU 0 instructions: 25000002 cycles: 17751027 cumulative IPC: 1.408 (Simulation time: 00 hr 07 min 10 sec)
Simulation complete CPU 0 instructions: 25000002 cycles: 17751027 cumulative IPC: 1.408 (Simulation time: 00 hr 07 min 10 sec)

ChampSim completed all CPUs

=== Simulation ===
CPU 0 runs ./traces/623.xalancbmk_s-165B.champsimtrace.xz
Region of Interest Statistics

CPU 0 cumulative IPC: 1.408 instructions: 25000002 cycles: 17751027
CPU 0 Branch Prediction Accuracy: 96.52% MPKI: 9.703 Average ROB Occupancy at Mispredict: 51.78
Branch type MPKI
BRANCH_DIRECT_JUMP: 0
BRANCH_INDIRECT: 0
BRANCH_CONDITIONAL: 9.7
BRANCH_DIRECT_CALL: 0
BRANCH_INDIRECT_CALL: 0
BRANCH_RETURN: 0

LLC TOTAL        ACCESS:     516671 HIT:     384430 MISS:     132241
LLC LOAD         ACCESS:     233482 HIT:     172610 MISS:      60872
LLC RFO          ACCESS:         87 HIT:         56 MISS:         31
LLC PREFETCH     ACCESS:     282869 HIT:     211571 MISS:      71298
LLC WRITE        ACCESS:        201 HIT:        193 MISS:          8
LLC TRANSLATION  ACCESS:         32 HIT:          0 MISS:         32
LLC PREFETCH REQUESTED:          0 ISSUED:          0 USEFUL:          0 USELESS:          0
LLC AVERAGE MISS LATENCY: 169.1 cycles
cpu0_DTLB TOTAL        ACCESS:    6040820 HIT:    6007662 MISS:      33158
cpu0_DTLB LOAD         ACCESS:    6040820 HIT:    6007662 MISS:      33158
cpu0_DTLB RFO          ACCESS:          0 HIT:          0 MISS:          0
cpu0_DTLB PREFETCH     ACCESS:          0 HIT:          0 MISS:          0
cpu0_DTLB WRITE        ACCESS:          0 HIT:          0 MISS:          0
cpu0_DTLB TRANSLATION  ACCESS:          0 HIT:          0 MISS:          0
cpu0_DTLB PREFETCH REQUESTED:          0 ISSUED:          0 USEFUL:          0 USELESS:          0
cpu0_DTLB AVERAGE MISS LATENCY: 1.054 cycles
cpu0_ITLB TOTAL        ACCESS:          0 HIT:          0 MISS:          0
cpu0_ITLB LOAD         ACCESS:          0 HIT:          0 MISS:          0
cpu0_ITLB RFO          ACCESS:          0 HIT:          0 MISS:          0
cpu0_ITLB PREFETCH     ACCESS:          0 HIT:          0 MISS:          0
cpu0_ITLB WRITE        ACCESS:          0 HIT:          0 MISS:          0
cpu0_ITLB TRANSLATION  ACCESS:          0 HIT:          0 MISS:          0
cpu0_ITLB PREFETCH REQUESTED:          0 ISSUED:          0 USEFUL:          0 USELESS:          0
cpu0_ITLB AVERAGE MISS LATENCY: -nan cycles
cpu0_L1D TOTAL        ACCESS:   12033921 HIT:    9564230 MISS:    2469691
cpu0_L1D LOAD         ACCESS:    6766748 HIT:    5248047 MISS:    1518701
cpu0_L1D RFO          ACCESS:          0 HIT:          0 MISS:          0
cpu0_L1D PREFETCH     ACCESS:    4938872 HIT:    3988447 MISS:     950425
cpu0_L1D WRITE        ACCESS:     328269 HIT:     327736 MISS:        533
cpu0_L1D TRANSLATION  ACCESS:         32 HIT:          0 MISS:         32
cpu0_L1D PREFETCH REQUESTED:    6766760 ISSUED:    4938871 USEFUL:      82778 USELESS:      40765
cpu0_L1D AVERAGE MISS LATENCY: 8.103 cycles
cpu0_L1I TOTAL        ACCESS:          0 HIT:          0 MISS:          0
cpu0_L1I LOAD         ACCESS:          0 HIT:          0 MISS:          0
cpu0_L1I RFO          ACCESS:          0 HIT:          0 MISS:          0
cpu0_L1I PREFETCH     ACCESS:          0 HIT:          0 MISS:          0
cpu0_L1I WRITE        ACCESS:          0 HIT:          0 MISS:          0
cpu0_L1I TRANSLATION  ACCESS:          0 HIT:          0 MISS:          0
cpu0_L1I PREFETCH REQUESTED:          0 ISSUED:          0 USEFUL:          0 USELESS:          0
cpu0_L1I AVERAGE MISS LATENCY: -nan cycles
cpu0_L2C TOTAL        ACCESS:     829676 HIT:     305094 MISS:     524582
cpu0_L2C LOAD         ACCESS:     392656 HIT:     158136 MISS:     234520
cpu0_L2C RFO          ACCESS:        105 HIT:         18 MISS:         87
cpu0_L2C PREFETCH     ACCESS:     436683 HIT:     146740 MISS:     289943
cpu0_L2C WRITE        ACCESS:        200 HIT:        200 MISS:          0
cpu0_L2C TRANSLATION  ACCESS:         32 HIT:          0 MISS:         32
cpu0_L2C PREFETCH REQUESTED:     313140 ISSUED:     313140 USEFUL:     220195 USELESS:       2348
cpu0_L2C AVERAGE MISS LATENCY: 62.12 cycles
cpu0_STLB TOTAL        ACCESS:       8784 HIT:       8752 MISS:         32
cpu0_STLB LOAD         ACCESS:       8784 HIT:       8752 MISS:         32
cpu0_STLB RFO          ACCESS:          0 HIT:          0 MISS:          0
cpu0_STLB PREFETCH     ACCESS:          0 HIT:          0 MISS:          0
cpu0_STLB WRITE        ACCESS:          0 HIT:          0 MISS:          0
cpu0_STLB TRANSLATION  ACCESS:          0 HIT:          0 MISS:          0
cpu0_STLB PREFETCH REQUESTED:          0 ISSUED:          0 USEFUL:          0 USELESS:          0
cpu0_STLB AVERAGE MISS LATENCY: 641.8 cycles

DRAM Statistics

Channel 0 RQ ROW_BUFFER_HIT:     121885
  ROW_BUFFER_MISS:      10348
 AVG DBUS CONGESTED CYCLE: 3.87
WQ ROW_BUFFER_HIT: Channel 0 
  ROW_BUFFER_MISS:         76
  FULL:         27
