WARNING: physical memory size is smaller than virtual memory size.

*** ChampSim Multicore Out-of-Order Simulator ***
Warmup Instructions: 25000000
Simulation Instructions: 25000000
Number of CPUs: 1
Page size: 4096

Off-chip DRAM Size: 4 GiB Channels: 1 Width: 64-bit Data Race: 800 MT/s
Heartbeat CPU 0 instructions: 10000002 cycles: 2511678 heartbeat IPC: 3.981 cumulative IPC: 3.981 (Simulation time: 00 hr 00 min 54 sec)
Heartbeat CPU 0 instructions: 20000000 cycles: 5012358 heartbeat IPC: 3.999 cumulative IPC: 3.99 (Simulation time: 00 hr 01 min 59 sec)
Warmup finished CPU 0 instructions: 25000000 cycles: 6262689 cumulative IPC: 3.992 (Simulation time: 00 hr 02 min 32 sec)
Warmup complete CPU 0 instructions: 25000000 cycles: 6262689 cumulative IPC: 3.992 (Simulation time: 00 hr 02 min 32 sec)
Heartbeat CPU 0 instructions: 30000003 cycles: 7995812 heartbeat IPC: 3.352 cumulative IPC: 2.885 (Simulation time: 00 hr 03 min 14 sec)
Heartbeat CPU 0 instructions: 40000003 cycles: 11460400 heartbeat IPC: 2.886 cumulative IPC: 2.886 (Simulation time: 00 hr 04 min 37 sec)
Heartbeat CPU 0 instructions: 50000002 cycles: 14920474 heartbeat IPC: 2.89 cumulative IPC: 2.888 (Simulation time: 00 hr 06 min 01 sec)
Simulation finished CPU 0 instructions: 25000002 cycles: 8657786 cumulative IPC: 2.888 (Simulation time: 00 hr 06 min 01 sec)
Simulation complete CPU 0 instructions: 25000002 cycles: 8657786 cumulative IPC: 2.888 (Simulation time: 00 hr 06 min 01 sec)

ChampSim completed all CPUs

=== Simulation ===
CPU 0 runs ./traces/625.x264_s-20B.champsimtrace.xz
Region of Interest Statistics

CPU 0 cumulative IPC: 2.888 instructions: 25000002 cycles: 8657786
CPU 0 Branch Prediction Accuracy: 92.14% MPKI: 3.331 Average ROB Occupancy at Mispredict: 127.3
Branch type MPKI
BRANCH_DIRECT_JUMP: 0.0004
BRANCH_INDIRECT: 0.00028
BRANCH_CONDITIONAL: 3.22
BRANCH_DIRECT_CALL: 4e-05
BRANCH_INDIRECT_CALL: 0.00696
BRANCH_RETURN: 0.104

LLC TOTAL        ACCESS:      56423 HIT:      19883 MISS:      36540
LLC LOAD         ACCESS:      12584 HIT:       5911 MISS:       6673
LLC RFO          ACCESS:       9423 HIT:        388 MISS:       9035
LLC PREFETCH     ACCESS:      22648 HIT:       1955 MISS:      20693
LLC WRITE        ACCESS:      11144 HIT:      11060 MISS:         84
LLC TRANSLATION  ACCESS:        624 HIT:        569 MISS:         55
LLC PREFETCH REQUESTED:          0 ISSUED:          0 USEFUL:          0 USELESS:          0
LLC AVERAGE MISS LATENCY: 446.9 cycles
cpu0_DTLB TOTAL        ACCESS:    4293149 HIT:    4124498 MISS:     168651
cpu0_DTLB LOAD         ACCESS:    4293149 HIT:    4124498 MISS:     168651
cpu0_DTLB RFO          ACCESS:          0 HIT:          0 MISS:          0
cpu0_DTLB PREFETCH     ACCESS:          0 HIT:          0 MISS:          0
cpu0_DTLB WRITE        ACCESS:          0 HIT:          0 MISS:          0
cpu0_DTLB TRANSLATION  ACCESS:          0 HIT:          0 MISS:          0
cpu0_DTLB PREFETCH REQUESTED:          0 ISSUED:          0 USEFUL:          0 USELESS:          0
cpu0_DTLB AVERAGE MISS LATENCY: 3.949 cycles
cpu0_ITLB TOTAL        ACCESS:     565107 HIT:     565107 MISS:          0
cpu0_ITLB LOAD         ACCESS:     565107 HIT:     565107 MISS:          0
cpu0_ITLB RFO          ACCESS:          0 HIT:          0 MISS:          0
cpu0_ITLB PREFETCH     ACCESS:          0 HIT:          0 MISS:          0
cpu0_ITLB WRITE        ACCESS:          0 HIT:          0 MISS:          0
cpu0_ITLB TRANSLATION  ACCESS:          0 HIT:          0 MISS:          0
cpu0_ITLB PREFETCH REQUESTED:          0 ISSUED:          0 USEFUL:          0 USELESS:          0
cpu0_ITLB AVERAGE MISS LATENCY: -nan cycles
cpu0_L1D TOTAL        ACCESS:    7823470 HIT:    7073613 MISS:     749857
cpu0_L1D LOAD         ACCESS:    3165406 HIT:    2794786 MISS:     370620
cpu0_L1D RFO          ACCESS:          0 HIT:          0 MISS:          0
cpu0_L1D PREFETCH     ACCESS:    2116219 HIT:    1855705 MISS:     260514
cpu0_L1D WRITE        ACCESS:    2541053 HIT:    2423082 MISS:     117971
cpu0_L1D TRANSLATION  ACCESS:        792 HIT:         40 MISS:        752
cpu0_L1D PREFETCH REQUESTED:    3226056 ISSUED:    2116228 USEFUL:      16624 USELESS:      75647
cpu0_L1D AVERAGE MISS LATENCY: 23.9 cycles
cpu0_L1I TOTAL        ACCESS:     681589 HIT:     599155 MISS:      82434
cpu0_L1I LOAD         ACCESS:     681589 HIT:     599155 MISS:      82434
cpu0_L1I RFO          ACCESS:          0 HIT:          0 MISS:          0
cpu0_L1I PREFETCH     ACCESS:          0 HIT:          0 MISS:          0
cpu0_L1I WRITE        ACCESS:          0 HIT:          0 MISS:          0
cpu0_L1I TRANSLATION  ACCESS:          0 HIT:          0 MISS:          0
cpu0_L1I PREFETCH REQUESTED:          0 ISSUED:          0 USEFUL:          0 USELESS:          0
cpu0_L1I AVERAGE MISS LATENCY: 7.089 cycles
cpu0_L2C TOTAL        ACCESS:     417084 HIT:     370230 MISS:      46854
cpu0_L2C LOAD         ACCESS:     186263 HIT:     173653 MISS:      12610
cpu0_L2C RFO          ACCESS:      58610 HIT:      49187 MISS:       9423
cpu0_L2C PREFETCH     ACCESS:     100784 HIT:      76733 MISS:      24051
cpu0_L2C WRITE        ACCESS:      70689 HIT:      70543 MISS:        146
cpu0_L2C TRANSLATION  ACCESS:        738 HIT:        114 MISS:        624
cpu0_L2C PREFETCH REQUESTED:       8521 ISSUED:       8521 USEFUL:       1660 USELESS:        419
cpu0_L2C AVERAGE MISS LATENCY: 364.4 cycles
cpu0_STLB TOTAL        ACCESS:      86083 HIT:      85291 MISS:        792
cpu0_STLB LOAD         ACCESS:      86083 HIT:      85291 MISS:        792
cpu0_STLB RFO          ACCESS:          0 HIT:          0 MISS:          0
cpu0_STLB PREFETCH     ACCESS:          0 HIT:          0 MISS:          0
cpu0_STLB WRITE        ACCESS:          0 HIT:          0 MISS:          0
cpu0_STLB TRANSLATION  ACCESS:          0 HIT:          0 MISS:          0
cpu0_STLB PREFETCH REQUESTED:          0 ISSUED:          0 USEFUL:          0 USELESS:          0
cpu0_STLB AVERAGE MISS LATENCY: 286.4 cycles

DRAM Statistics

Channel 0 RQ ROW_BUFFER_HIT:      15383
  ROW_BUFFER_MISS:      20187
 AVG DBUS CONGESTED CYCLE: 3.922
WQ ROW_BUFFER_HIT: Channel 0 
  ROW_BUFFER_MISS:        697
  FULL:       8013
