WARNING: physical memory size is smaller than virtual memory size.

*** ChampSim Multicore Out-of-Order Simulator ***
Warmup Instructions: 25000000
Simulation Instructions: 25000000
Number of CPUs: 1
Page size: 4096

Off-chip DRAM Size: 4 GiB Channels: 1 Width: 64-bit Data Race: 800 MT/s
Heartbeat CPU 0 instructions: 10000000 cycles: 2963453 heartbeat IPC: 3.374 cumulative IPC: 3.374 (Simulation time: 00 hr 01 min 29 sec)
Heartbeat CPU 0 instructions: 20000000 cycles: 5907545 heartbeat IPC: 3.397 cumulative IPC: 3.386 (Simulation time: 00 hr 02 min 51 sec)
Warmup finished CPU 0 instructions: 25000003 cycles: 7392669 cumulative IPC: 3.382 (Simulation time: 00 hr 03 min 36 sec)
Warmup complete CPU 0 instructions: 25000003 cycles: 7392669 cumulative IPC: 3.382 (Simulation time: 00 hr 03 min 36 sec)
Heartbeat CPU 0 instructions: 30000001 cycles: 41252292 heartbeat IPC: 0.2829 cumulative IPC: 0.1477 (Simulation time: 00 hr 10 min 49 sec)
Heartbeat CPU 0 instructions: 40000002 cycles: 108826091 heartbeat IPC: 0.148 cumulative IPC: 0.1479 (Simulation time: 00 hr 17 min 20 sec)
Heartbeat CPU 0 instructions: 50000000 cycles: 178871677 heartbeat IPC: 0.1428 cumulative IPC: 0.1458 (Simulation time: 00 hr 21 min 37 sec)
Simulation finished CPU 0 instructions: 25000001 cycles: 171479010 cumulative IPC: 0.1458 (Simulation time: 00 hr 21 min 37 sec)
Simulation complete CPU 0 instructions: 25000001 cycles: 171479010 cumulative IPC: 0.1458 (Simulation time: 00 hr 21 min 37 sec)

ChampSim completed all CPUs

=== Simulation ===
CPU 0 runs ./traces/619.lbm_s-2677B.champsimtrace.xz
Region of Interest Statistics

CPU 0 cumulative IPC: 0.1458 instructions: 25000001 cycles: 171479010
CPU 0 Branch Prediction Accuracy: 95.14% MPKI: 0.8683 Average ROB Occupancy at Mispredict: 294.1
Branch type MPKI
BRANCH_DIRECT_JUMP: 0
BRANCH_INDIRECT: 0
BRANCH_CONDITIONAL: 0.868
BRANCH_DIRECT_CALL: 0
BRANCH_INDIRECT_CALL: 0
BRANCH_RETURN: 0

LLC TOTAL        ACCESS:    3444755 HIT:    2248350 MISS:    1196405
LLC LOAD         ACCESS:     206576 HIT:      13607 MISS:     192969
LLC RFO          ACCESS:    1552438 HIT:     668770 MISS:     883668
LLC PREFETCH     ACCESS:     131479 HIT:      12801 MISS:     118678
LLC WRITE        ACCESS:    1553717 HIT:    1552809 MISS:        908
LLC TRANSLATION  ACCESS:        545 HIT:        363 MISS:        182
LLC PREFETCH REQUESTED:          0 ISSUED:          0 USEFUL:          0 USELESS:          0
LLC AVERAGE MISS LATENCY: 2027 cycles
cpu0_DTLB TOTAL        ACCESS:    5143445 HIT:    5087660 MISS:      55785
cpu0_DTLB LOAD         ACCESS:    5143445 HIT:    5087660 MISS:      55785
cpu0_DTLB RFO          ACCESS:          0 HIT:          0 MISS:          0
cpu0_DTLB PREFETCH     ACCESS:          0 HIT:          0 MISS:          0
cpu0_DTLB WRITE        ACCESS:          0 HIT:          0 MISS:          0
cpu0_DTLB TRANSLATION  ACCESS:          0 HIT:          0 MISS:          0
cpu0_DTLB PREFETCH REQUESTED:          0 ISSUED:          0 USEFUL:          0 USELESS:          0
cpu0_DTLB AVERAGE MISS LATENCY: 123.9 cycles
cpu0_ITLB TOTAL        ACCESS:          0 HIT:          0 MISS:          0
cpu0_ITLB LOAD         ACCESS:          0 HIT:          0 MISS:          0
cpu0_ITLB RFO          ACCESS:          0 HIT:          0 MISS:          0
cpu0_ITLB PREFETCH     ACCESS:          0 HIT:          0 MISS:          0
cpu0_ITLB WRITE        ACCESS:          0 HIT:          0 MISS:          0
cpu0_ITLB TRANSLATION  ACCESS:          0 HIT:          0 MISS:          0
cpu0_ITLB PREFETCH REQUESTED:          0 ISSUED:          0 USEFUL:          0 USELESS:          0
cpu0_ITLB AVERAGE MISS LATENCY: -nan cycles
cpu0_L1D TOTAL        ACCESS:    8043040 HIT:    4911444 MISS:    3131596
cpu0_L1D LOAD         ACCESS:    1729465 HIT:    1158796 MISS:     570669
cpu0_L1D RFO          ACCESS:          0 HIT:          0 MISS:          0
cpu0_L1D PREFETCH     ACCESS:    1727220 HIT:     964696 MISS:     762524
cpu0_L1D WRITE        ACCESS:    4567861 HIT:    2787934 MISS:    1779927
cpu0_L1D TRANSLATION  ACCESS:      18494 HIT:         18 MISS:      18476
cpu0_L1D PREFETCH REQUESTED:   17283706 ISSUED:    1727222 USEFUL:      72389 USELESS:       2668
cpu0_L1D AVERAGE MISS LATENCY: 706.1 cycles
cpu0_L1I TOTAL        ACCESS:          0 HIT:          0 MISS:          0
cpu0_L1I LOAD         ACCESS:          0 HIT:          0 MISS:          0
cpu0_L1I RFO          ACCESS:          0 HIT:          0 MISS:          0
cpu0_L1I PREFETCH     ACCESS:          0 HIT:          0 MISS:          0
cpu0_L1I WRITE        ACCESS:          0 HIT:          0 MISS:          0
cpu0_L1I TRANSLATION  ACCESS:          0 HIT:          0 MISS:          0
cpu0_L1I PREFETCH REQUESTED:          0 ISSUED:          0 USEFUL:          0 USELESS:          0
cpu0_L1I AVERAGE MISS LATENCY: -nan cycles
cpu0_L2C TOTAL        ACCESS:    3739910 HIT:    1845161 MISS:    1894749
cpu0_L2C LOAD         ACCESS:     223482 HIT:      16009 MISS:     207473
cpu0_L2C RFO          ACCESS:    1675333 HIT:     122896 MISS:    1552437
cpu0_L2C PREFETCH     ACCESS:     147274 HIT:      12980 MISS:     134294
cpu0_L2C WRITE        ACCESS:    1675345 HIT:    1675345 MISS:          0
cpu0_L2C TRANSLATION  ACCESS:      18476 HIT:      17931 MISS:        545
cpu0_L2C PREFETCH REQUESTED:      72215 ISSUED:      72215 USEFUL:      17197 USELESS:        506
cpu0_L2C AVERAGE MISS LATENCY: 1268 cycles
cpu0_STLB TOTAL        ACCESS:      34048 HIT:      15572 MISS:      18476
cpu0_STLB LOAD         ACCESS:      34048 HIT:      15572 MISS:      18476
cpu0_STLB RFO          ACCESS:          0 HIT:          0 MISS:          0
cpu0_STLB PREFETCH     ACCESS:          0 HIT:          0 MISS:          0
cpu0_STLB WRITE        ACCESS:          0 HIT:          0 MISS:          0
cpu0_STLB TRANSLATION  ACCESS:          0 HIT:          0 MISS:          0
cpu0_STLB PREFETCH REQUESTED:          0 ISSUED:          0 USEFUL:          0 USELESS:          0
cpu0_STLB AVERAGE MISS LATENCY: 443.7 cycles

DRAM Statistics

Channel 0 RQ ROW_BUFFER_HIT:      85385
  ROW_BUFFER_MISS:    1096997
 AVG DBUS CONGESTED CYCLE: 3.984
WQ ROW_BUFFER_HIT: Channel 0 
  ROW_BUFFER_MISS:      19029
  FULL:     871036
