WARNING: physical memory size is smaller than virtual memory size.

*** ChampSim Multicore Out-of-Order Simulator ***
Warmup Instructions: 25000000
Simulation Instructions: 25000000
Number of CPUs: 1
Page size: 4096

Off-chip DRAM Size: 4 GiB Channels: 1 Width: 64-bit Data Race: 800 MT/s
Heartbeat CPU 0 instructions: 10000001 cycles: 2504947 heartbeat IPC: 3.992 cumulative IPC: 3.992 (Simulation time: 00 hr 01 min 14 sec)
Heartbeat CPU 0 instructions: 20000000 cycles: 5005884 heartbeat IPC: 3.999 cumulative IPC: 3.995 (Simulation time: 00 hr 02 min 21 sec)
Warmup finished CPU 0 instructions: 25000000 cycles: 6257445 cumulative IPC: 3.995 (Simulation time: 00 hr 02 min 55 sec)
Warmup complete CPU 0 instructions: 25000000 cycles: 6257445 cumulative IPC: 3.995 (Simulation time: 00 hr 02 min 55 sec)
Heartbeat CPU 0 instructions: 30000000 cycles: 16410118 heartbeat IPC: 0.8769 cumulative IPC: 0.4925 (Simulation time: 00 hr 05 min 03 sec)
Heartbeat CPU 0 instructions: 40000003 cycles: 36736028 heartbeat IPC: 0.492 cumulative IPC: 0.4921 (Simulation time: 00 hr 08 min 56 sec)
Heartbeat CPU 0 instructions: 50000003 cycles: 62259153 heartbeat IPC: 0.3918 cumulative IPC: 0.4464 (Simulation time: 00 hr 13 min 08 sec)
Simulation finished CPU 0 instructions: 25000003 cycles: 56001709 cumulative IPC: 0.4464 (Simulation time: 00 hr 13 min 08 sec)
Simulation complete CPU 0 instructions: 25000003 cycles: 56001709 cumulative IPC: 0.4464 (Simulation time: 00 hr 13 min 08 sec)

ChampSim completed all CPUs

=== Simulation ===
CPU 0 runs ./traces/623.xalancbmk_s-10B.champsimtrace.xz
Region of Interest Statistics

CPU 0 cumulative IPC: 0.4464 instructions: 25000003 cycles: 56001709
CPU 0 Branch Prediction Accuracy: 94.41% MPKI: 14.5 Average ROB Occupancy at Mispredict: 40.03
Branch type MPKI
BRANCH_DIRECT_JUMP: 0.0934
BRANCH_INDIRECT: 0.0223
BRANCH_CONDITIONAL: 13.9
BRANCH_DIRECT_CALL: 4e-05
BRANCH_INDIRECT_CALL: 0.127
BRANCH_RETURN: 0.402

LLC TOTAL        ACCESS:     962438 HIT:     204862 MISS:     757576
LLC LOAD         ACCESS:     632419 HIT:     140278 MISS:     492141
LLC RFO          ACCESS:       5971 HIT:       3117 MISS:       2854
LLC PREFETCH     ACCESS:     278257 HIT:      42839 MISS:     235418
LLC WRITE        ACCESS:      13097 HIT:      13015 MISS:         82
LLC TRANSLATION  ACCESS:      32694 HIT:       5613 MISS:      27081
LLC PREFETCH REQUESTED:          0 ISSUED:          0 USEFUL:          0 USELESS:          0
LLC AVERAGE MISS LATENCY: 316.5 cycles
cpu0_DTLB TOTAL        ACCESS:    5868795 HIT:    5490005 MISS:     378790
cpu0_DTLB LOAD         ACCESS:    5868795 HIT:    5490005 MISS:     378790
cpu0_DTLB RFO          ACCESS:          0 HIT:          0 MISS:          0
cpu0_DTLB PREFETCH     ACCESS:          0 HIT:          0 MISS:          0
cpu0_DTLB WRITE        ACCESS:          0 HIT:          0 MISS:          0
cpu0_DTLB TRANSLATION  ACCESS:          0 HIT:          0 MISS:          0
cpu0_DTLB PREFETCH REQUESTED:          0 ISSUED:          0 USEFUL:          0 USELESS:          0
cpu0_DTLB AVERAGE MISS LATENCY: 29.86 cycles
cpu0_ITLB TOTAL        ACCESS:     344094 HIT:     302823 MISS:      41271
cpu0_ITLB LOAD         ACCESS:     344094 HIT:     302823 MISS:      41271
cpu0_ITLB RFO          ACCESS:          0 HIT:          0 MISS:          0
cpu0_ITLB PREFETCH     ACCESS:          0 HIT:          0 MISS:          0
cpu0_ITLB WRITE        ACCESS:          0 HIT:          0 MISS:          0
cpu0_ITLB TRANSLATION  ACCESS:          0 HIT:          0 MISS:          0
cpu0_ITLB PREFETCH REQUESTED:          0 ISSUED:          0 USEFUL:          0 USELESS:          0
cpu0_ITLB AVERAGE MISS LATENCY: 7.124 cycles
cpu0_L1D TOTAL        ACCESS:   12293121 HIT:    9990822 MISS:    2302299
cpu0_L1D LOAD         ACCESS:    6087435 HIT:    4858034 MISS:    1229401
cpu0_L1D RFO          ACCESS:          0 HIT:          0 MISS:          0
cpu0_L1D PREFETCH     ACCESS:    4846631 HIT:    3902987 MISS:     943644
cpu0_L1D WRITE        ACCESS:    1231537 HIT:    1154899 MISS:      76638
cpu0_L1D TRANSLATION  ACCESS:     127518 HIT:      74902 MISS:      52616
cpu0_L1D PREFETCH REQUESTED:    6088834 ISSUED:    4846634 USEFUL:      39060 USELESS:     275281
cpu0_L1D AVERAGE MISS LATENCY: 115.8 cycles
cpu0_L1I TOTAL        ACCESS:     382681 HIT:     244994 MISS:     137687
cpu0_L1I LOAD         ACCESS:     382681 HIT:     244994 MISS:     137687
cpu0_L1I RFO          ACCESS:          0 HIT:          0 MISS:          0
cpu0_L1I PREFETCH     ACCESS:          0 HIT:          0 MISS:          0
cpu0_L1I WRITE        ACCESS:          0 HIT:          0 MISS:          0
cpu0_L1I TRANSLATION  ACCESS:          0 HIT:          0 MISS:          0
cpu0_L1I PREFETCH REQUESTED:          0 ISSUED:          0 USEFUL:          0 USELESS:          0
cpu0_L1I AVERAGE MISS LATENCY: 13.62 cycles
cpu0_L2C TOTAL        ACCESS:    1230171 HIT:     278706 MISS:     951465
cpu0_L2C LOAD         ACCESS:     776595 HIT:     143700 MISS:     632895
cpu0_L2C RFO          ACCESS:      18758 HIT:      12785 MISS:       5973
cpu0_L2C PREFETCH     ACCESS:     335688 HIT:      56024 MISS:     279664
cpu0_L2C WRITE        ACCESS:      46893 HIT:      46654 MISS:        239
cpu0_L2C TRANSLATION  ACCESS:      52237 HIT:      19543 MISS:      32694
cpu0_L2C PREFETCH REQUESTED:      21308 ISSUED:      21308 USEFUL:       6398 USELESS:       6479
cpu0_L2C AVERAGE MISS LATENCY: 272.6 cycles
cpu0_STLB TOTAL        ACCESS:     186132 HIT:      59272 MISS:     126860
cpu0_STLB LOAD         ACCESS:     186132 HIT:      59272 MISS:     126860
cpu0_STLB RFO          ACCESS:          0 HIT:          0 MISS:          0
cpu0_STLB PREFETCH     ACCESS:          0 HIT:          0 MISS:          0
cpu0_STLB WRITE        ACCESS:          0 HIT:          0 MISS:          0
cpu0_STLB TRANSLATION  ACCESS:          0 HIT:          0 MISS:          0
cpu0_STLB PREFETCH REQUESTED:          0 ISSUED:          0 USEFUL:          0 USELESS:          0
cpu0_STLB AVERAGE MISS LATENCY: 84.37 cycles

DRAM Statistics

Channel 0 RQ ROW_BUFFER_HIT:     443691
  ROW_BUFFER_MISS:     313714
 AVG DBUS CONGESTED CYCLE: 3.869
WQ ROW_BUFFER_HIT: Channel 0 
  ROW_BUFFER_MISS:       1112
  FULL:       3289
