WARNING: physical memory size is smaller than virtual memory size.

*** ChampSim Multicore Out-of-Order Simulator ***
Warmup Instructions: 25000000
Simulation Instructions: 25000000
Number of CPUs: 1
Page size: 4096

Off-chip DRAM Size: 4 GiB Channels: 1 Width: 64-bit Data Race: 800 MT/s
Heartbeat CPU 0 instructions: 10000000 cycles: 2500125 heartbeat IPC: 4 cumulative IPC: 4 (Simulation time: 00 hr 01 min 17 sec)
Heartbeat CPU 0 instructions: 20000001 cycles: 5000145 heartbeat IPC: 4 cumulative IPC: 4 (Simulation time: 00 hr 02 min 29 sec)
Warmup finished CPU 0 instructions: 25000001 cycles: 6250146 cumulative IPC: 4 (Simulation time: 00 hr 03 min 05 sec)
Warmup complete CPU 0 instructions: 25000001 cycles: 6250146 cumulative IPC: 4 (Simulation time: 00 hr 03 min 05 sec)
Heartbeat CPU 0 instructions: 30000000 cycles: 14055950 heartbeat IPC: 1.104 cumulative IPC: 0.6405 (Simulation time: 00 hr 05 min 27 sec)
Heartbeat CPU 0 instructions: 40000002 cycles: 29516884 heartbeat IPC: 0.6468 cumulative IPC: 0.6447 (Simulation time: 00 hr 09 min 34 sec)
Heartbeat CPU 0 instructions: 50000000 cycles: 44824342 heartbeat IPC: 0.6533 cumulative IPC: 0.6481 (Simulation time: 00 hr 13 min 13 sec)
Simulation finished CPU 0 instructions: 25000003 cycles: 38574198 cumulative IPC: 0.6481 (Simulation time: 00 hr 13 min 13 sec)
Simulation complete CPU 0 instructions: 25000003 cycles: 38574198 cumulative IPC: 0.6481 (Simulation time: 00 hr 13 min 13 sec)

ChampSim completed all CPUs

=== Simulation ===
CPU 0 runs ./traces/649.fotonik3d_s-7084B.champsimtrace.xz
Region of Interest Statistics

CPU 0 cumulative IPC: 0.6481 instructions: 25000003 cycles: 38574198
CPU 0 Branch Prediction Accuracy: 99.19% MPKI: 0.05616 Average ROB Occupancy at Mispredict: 352
Branch type MPKI
BRANCH_DIRECT_JUMP: 0
BRANCH_INDIRECT: 0
BRANCH_CONDITIONAL: 0.0562
BRANCH_DIRECT_CALL: 0
BRANCH_INDIRECT_CALL: 0
BRANCH_RETURN: 0

LLC TOTAL        ACCESS:     551401 HIT:      98819 MISS:     452582
LLC LOAD         ACCESS:      45650 HIT:         32 MISS:      45618
LLC RFO          ACCESS:          0 HIT:          0 MISS:          0
LLC PREFETCH     ACCESS:     375460 HIT:        134 MISS:     375326
LLC WRITE        ACCESS:     129807 HIT:      98271 MISS:      31536
LLC TRANSLATION  ACCESS:        484 HIT:        382 MISS:        102
LLC PREFETCH REQUESTED:          0 ISSUED:          0 USEFUL:          0 USELESS:          0
LLC AVERAGE MISS LATENCY: 855.8 cycles
cpu0_DTLB TOTAL        ACCESS:    6192165 HIT:    6167310 MISS:      24855
cpu0_DTLB LOAD         ACCESS:    6192165 HIT:    6167310 MISS:      24855
cpu0_DTLB RFO          ACCESS:          0 HIT:          0 MISS:          0
cpu0_DTLB PREFETCH     ACCESS:          0 HIT:          0 MISS:          0
cpu0_DTLB WRITE        ACCESS:          0 HIT:          0 MISS:          0
cpu0_DTLB TRANSLATION  ACCESS:          0 HIT:          0 MISS:          0
cpu0_DTLB PREFETCH REQUESTED:          0 ISSUED:          0 USEFUL:          0 USELESS:          0
cpu0_DTLB AVERAGE MISS LATENCY: 41.71 cycles
cpu0_ITLB TOTAL        ACCESS:          0 HIT:          0 MISS:          0
cpu0_ITLB LOAD         ACCESS:          0 HIT:          0 MISS:          0
cpu0_ITLB RFO          ACCESS:          0 HIT:          0 MISS:          0
cpu0_ITLB PREFETCH     ACCESS:          0 HIT:          0 MISS:          0
cpu0_ITLB WRITE        ACCESS:          0 HIT:          0 MISS:          0
cpu0_ITLB TRANSLATION  ACCESS:          0 HIT:          0 MISS:          0
cpu0_ITLB PREFETCH REQUESTED:          0 ISSUED:          0 USEFUL:          0 USELESS:          0
cpu0_ITLB AVERAGE MISS LATENCY: -nan cycles
cpu0_L1D TOTAL        ACCESS:   10779706 HIT:    8980115 MISS:    1799591
cpu0_L1D LOAD         ACCESS:    6525199 HIT:    5789206 MISS:     735993
cpu0_L1D RFO          ACCESS:          0 HIT:          0 MISS:          0
cpu0_L1D PREFETCH     ACCESS:    3019560 HIT:    1962778 MISS:    1056782
cpu0_L1D WRITE        ACCESS:    1228112 HIT:    1228108 MISS:          4
cpu0_L1D TRANSLATION  ACCESS:       6835 HIT:         23 MISS:       6812
cpu0_L1D PREFETCH REQUESTED:    6896802 ISSUED:    3019560 USEFUL:     338056 USELESS:      13852
cpu0_L1D AVERAGE MISS LATENCY: 122 cycles
cpu0_L1I TOTAL        ACCESS:          0 HIT:          0 MISS:          0
cpu0_L1I LOAD         ACCESS:          0 HIT:          0 MISS:          0
cpu0_L1I RFO          ACCESS:          0 HIT:          0 MISS:          0
cpu0_L1I PREFETCH     ACCESS:          0 HIT:          0 MISS:          0
cpu0_L1I WRITE        ACCESS:          0 HIT:          0 MISS:          0
cpu0_L1I TRANSLATION  ACCESS:          0 HIT:          0 MISS:          0
cpu0_L1I PREFETCH REQUESTED:          0 ISSUED:          0 USEFUL:          0 USELESS:          0
cpu0_L1I AVERAGE MISS LATENCY: -nan cycles
cpu0_L2C TOTAL        ACCESS:     685606 HIT:     245677 MISS:     439929
cpu0_L2C LOAD         ACCESS:      85566 HIT:      39215 MISS:      46351
cpu0_L2C RFO          ACCESS:          4 HIT:          4 MISS:          0
cpu0_L2C PREFETCH     ACCESS:     462652 HIT:      69620 MISS:     393032
cpu0_L2C WRITE        ACCESS:     130572 HIT:     130510 MISS:         62
cpu0_L2C TRANSLATION  ACCESS:       6812 HIT:       6328 MISS:        484
cpu0_L2C PREFETCH REQUESTED:     110744 ISSUED:     110744 USEFUL:      39753 USELESS:       3247
cpu0_L2C AVERAGE MISS LATENCY: 898.9 cycles
cpu0_STLB TOTAL        ACCESS:      13962 HIT:       7139 MISS:       6823
cpu0_STLB LOAD         ACCESS:      13962 HIT:       7139 MISS:       6823
cpu0_STLB RFO          ACCESS:          0 HIT:          0 MISS:          0
cpu0_STLB PREFETCH     ACCESS:          0 HIT:          0 MISS:          0
cpu0_STLB WRITE        ACCESS:          0 HIT:          0 MISS:          0
cpu0_STLB TRANSLATION  ACCESS:          0 HIT:          0 MISS:          0
cpu0_STLB PREFETCH REQUESTED:          0 ISSUED:          0 USEFUL:          0 USELESS:          0
cpu0_STLB AVERAGE MISS LATENCY: 198.8 cycles

DRAM Statistics

Channel 0 RQ ROW_BUFFER_HIT:     183643
  ROW_BUFFER_MISS:     237389
 AVG DBUS CONGESTED CYCLE: 3.876
WQ ROW_BUFFER_HIT: Channel 0 
  ROW_BUFFER_MISS:       1769
  FULL:     122051
