WARNING: physical memory size is smaller than virtual memory size.

*** ChampSim Multicore Out-of-Order Simulator ***
Warmup Instructions: 25000000
Simulation Instructions: 25000000
Number of CPUs: 1
Page size: 4096

Off-chip DRAM Size: 4 GiB Channels: 1 Width: 64-bit Data Race: 800 MT/s
Heartbeat CPU 0 instructions: 10000001 cycles: 2992600 heartbeat IPC: 3.342 cumulative IPC: 3.342 (Simulation time: 00 hr 00 min 48 sec)
Heartbeat CPU 0 instructions: 20000001 cycles: 5656677 heartbeat IPC: 3.754 cumulative IPC: 3.536 (Simulation time: 00 hr 01 min 36 sec)
Warmup finished CPU 0 instructions: 25000002 cycles: 7070820 cumulative IPC: 3.536 (Simulation time: 00 hr 02 min 01 sec)
Warmup complete CPU 0 instructions: 25000002 cycles: 7070820 cumulative IPC: 3.536 (Simulation time: 00 hr 02 min 01 sec)
Heartbeat CPU 0 instructions: 30000003 cycles: 64301105 heartbeat IPC: 0.1705 cumulative IPC: 0.08737 (Simulation time: 00 hr 08 min 35 sec)
Heartbeat CPU 0 instructions: 40000003 cycles: 175190815 heartbeat IPC: 0.09018 cumulative IPC: 0.08922 (Simulation time: 00 hr 21 min 22 sec)
Heartbeat CPU 0 instructions: 50000001 cycles: 273388698 heartbeat IPC: 0.1018 cumulative IPC: 0.09387 (Simulation time: 00 hr 26 min 14 sec)
Simulation finished CPU 0 instructions: 25000003 cycles: 266317880 cumulative IPC: 0.09387 (Simulation time: 00 hr 26 min 14 sec)
Simulation complete CPU 0 instructions: 25000003 cycles: 266317880 cumulative IPC: 0.09387 (Simulation time: 00 hr 26 min 14 sec)

ChampSim completed all CPUs

=== Simulation ===
CPU 0 runs ./traces/astar_313B.trace.xz
Region of Interest Statistics

CPU 0 cumulative IPC: 0.09387 instructions: 25000003 cycles: 266317880
CPU 0 Branch Prediction Accuracy: 86.94% MPKI: 27.53 Average ROB Occupancy at Mispredict: 14.9
Branch type MPKI
BRANCH_DIRECT_JUMP: 0
BRANCH_INDIRECT: 0
BRANCH_CONDITIONAL: 27.5
BRANCH_DIRECT_CALL: 0
BRANCH_INDIRECT_CALL: 0.00048
BRANCH_RETURN: 0.00032

LLC TOTAL        ACCESS:    2787163 HIT:    1031513 MISS:    1755650
LLC LOAD         ACCESS:     484367 HIT:     136596 MISS:     347771
LLC RFO          ACCESS:     539908 HIT:      25678 MISS:     514230
LLC PREFETCH     ACCESS:     697840 HIT:     108664 MISS:     589176
LLC WRITE        ACCESS:     770481 HIT:     720949 MISS:      49532
LLC TRANSLATION  ACCESS:     294567 HIT:      39626 MISS:     254941
LLC PREFETCH REQUESTED:          0 ISSUED:          0 USEFUL:          0 USELESS:          0
LLC AVERAGE MISS LATENCY: 910.6 cycles
cpu0_DTLB TOTAL        ACCESS:    9258583 HIT:    8037035 MISS:    1221548
cpu0_DTLB LOAD         ACCESS:    9258583 HIT:    8037035 MISS:    1221548
cpu0_DTLB RFO          ACCESS:          0 HIT:          0 MISS:          0
cpu0_DTLB PREFETCH     ACCESS:          0 HIT:          0 MISS:          0
cpu0_DTLB WRITE        ACCESS:          0 HIT:          0 MISS:          0
cpu0_DTLB TRANSLATION  ACCESS:          0 HIT:          0 MISS:          0
cpu0_DTLB PREFETCH REQUESTED:          0 ISSUED:          0 USEFUL:          0 USELESS:          0
cpu0_DTLB AVERAGE MISS LATENCY: 343.1 cycles
cpu0_ITLB TOTAL        ACCESS:         33 HIT:         33 MISS:          0
cpu0_ITLB LOAD         ACCESS:         33 HIT:         33 MISS:          0
cpu0_ITLB RFO          ACCESS:          0 HIT:          0 MISS:          0
cpu0_ITLB PREFETCH     ACCESS:          0 HIT:          0 MISS:          0
cpu0_ITLB WRITE        ACCESS:          0 HIT:          0 MISS:          0
cpu0_ITLB TRANSLATION  ACCESS:          0 HIT:          0 MISS:          0
cpu0_ITLB PREFETCH REQUESTED:          0 ISSUED:          0 USEFUL:          0 USELESS:          0
cpu0_ITLB AVERAGE MISS LATENCY: -nan cycles
cpu0_L1D TOTAL        ACCESS:   19205857 HIT:   15648646 MISS:    3557211
cpu0_L1D LOAD         ACCESS:    8434168 HIT:    7287322 MISS:    1146846
cpu0_L1D RFO          ACCESS:          0 HIT:          0 MISS:          0
cpu0_L1D PREFETCH     ACCESS:    7618593 HIT:    6164507 MISS:    1454086
cpu0_L1D WRITE        ACCESS:    2578812 HIT:    2013468 MISS:     565344
cpu0_L1D TRANSLATION  ACCESS:     574284 HIT:     183349 MISS:     390935
cpu0_L1D PREFETCH REQUESTED:   13548402 ISSUED:    7618594 USEFUL:     133259 USELESS:     782413
cpu0_L1D AVERAGE MISS LATENCY: 450.1 cycles
cpu0_L1I TOTAL        ACCESS:         35 HIT:         35 MISS:          0
cpu0_L1I LOAD         ACCESS:         35 HIT:         35 MISS:          0
cpu0_L1I RFO          ACCESS:          0 HIT:          0 MISS:          0
cpu0_L1I PREFETCH     ACCESS:          0 HIT:          0 MISS:          0
cpu0_L1I WRITE        ACCESS:          0 HIT:          0 MISS:          0
cpu0_L1I TRANSLATION  ACCESS:          0 HIT:          0 MISS:          0
cpu0_L1I PREFETCH REQUESTED:          0 ISSUED:          0 USEFUL:          0 USELESS:          0
cpu0_L1I AVERAGE MISS LATENCY: -nan cycles
cpu0_L2C TOTAL        ACCESS:    3736357 HIT:    1681406 MISS:    2054951
cpu0_L2C LOAD         ACCESS:     906463 HIT:     410477 MISS:     495986
cpu0_L2C RFO          ACCESS:     565087 HIT:      25179 MISS:     539908
cpu0_L2C PREFETCH     ACCESS:    1081467 HIT:     357027 MISS:     724440
cpu0_L2C WRITE        ACCESS:     793313 HIT:     793263 MISS:         50
cpu0_L2C TRANSLATION  ACCESS:     390027 HIT:      95460 MISS:     294567
cpu0_L2C PREFETCH REQUESTED:     165632 ISSUED:     165632 USEFUL:      18115 USELESS:        628
cpu0_L2C AVERAGE MISS LATENCY: 772.5 cycles
cpu0_STLB TOTAL        ACCESS:     992124 HIT:     479614 MISS:     512510
cpu0_STLB LOAD         ACCESS:     992124 HIT:     479614 MISS:     512510
cpu0_STLB RFO          ACCESS:          0 HIT:          0 MISS:          0
cpu0_STLB PREFETCH     ACCESS:          0 HIT:          0 MISS:          0
cpu0_STLB WRITE        ACCESS:          0 HIT:          0 MISS:          0
cpu0_STLB TRANSLATION  ACCESS:          0 HIT:          0 MISS:          0
cpu0_STLB PREFETCH REQUESTED:          0 ISSUED:          0 USEFUL:          0 USELESS:          0
cpu0_STLB AVERAGE MISS LATENCY: 858.8 cycles

DRAM Statistics

Channel 0 RQ ROW_BUFFER_HIT:      80314
  ROW_BUFFER_MISS:    1542479
 AVG DBUS CONGESTED CYCLE: 3.979
WQ ROW_BUFFER_HIT: Channel 0 
  ROW_BUFFER_MISS:        844
  FULL:     743890
