WARNING: physical memory size is smaller than virtual memory size.

*** ChampSim Multicore Out-of-Order Simulator ***
Warmup Instructions: 25000000
Simulation Instructions: 25000000
Number of CPUs: 1
Page size: 4096

Off-chip DRAM Size: 4 GiB Channels: 1 Width: 64-bit Data Race: 800 MT/s
Heartbeat CPU 0 instructions: 10000003 cycles: 2500096 heartbeat IPC: 4 cumulative IPC: 4 (Simulation time: 00 hr 00 min 34 sec)
Heartbeat CPU 0 instructions: 20000003 cycles: 5000096 heartbeat IPC: 4 cumulative IPC: 4 (Simulation time: 00 hr 01 min 11 sec)
Warmup finished CPU 0 instructions: 25000003 cycles: 6250097 cumulative IPC: 4 (Simulation time: 00 hr 01 min 30 sec)
Warmup complete CPU 0 instructions: 25000003 cycles: 6250097 cumulative IPC: 4 (Simulation time: 00 hr 01 min 30 sec)
Heartbeat CPU 0 instructions: 30000001 cycles: 16422826 heartbeat IPC: 0.8754 cumulative IPC: 0.4915 (Simulation time: 00 hr 02 min 36 sec)
Heartbeat CPU 0 instructions: 40000001 cycles: 37064529 heartbeat IPC: 0.4845 cumulative IPC: 0.4868 (Simulation time: 00 hr 04 min 57 sec)
Heartbeat CPU 0 instructions: 50000000 cycles: 56772463 heartbeat IPC: 0.5074 cumulative IPC: 0.4948 (Simulation time: 00 hr 07 min 15 sec)
Simulation finished CPU 0 instructions: 25000001 cycles: 50522368 cumulative IPC: 0.4948 (Simulation time: 00 hr 07 min 15 sec)
Simulation complete CPU 0 instructions: 25000001 cycles: 50522368 cumulative IPC: 0.4948 (Simulation time: 00 hr 07 min 15 sec)

ChampSim completed all CPUs

=== Simulation ===
CPU 0 runs ./traces/astar_23B.trace.xz
Region of Interest Statistics

CPU 0 cumulative IPC: 0.4948 instructions: 25000001 cycles: 50522368
CPU 0 Branch Prediction Accuracy: 72.89% MPKI: 51.75 Average ROB Occupancy at Mispredict: 4.943
Branch type MPKI
BRANCH_DIRECT_JUMP: 0
BRANCH_INDIRECT: 0
BRANCH_CONDITIONAL: 51.7
BRANCH_DIRECT_CALL: 0
BRANCH_INDIRECT_CALL: 0
BRANCH_RETURN: 0

LLC TOTAL        ACCESS:    1452065 HIT:    1376657 MISS:      75408
LLC LOAD         ACCESS:     587721 HIT:     545074 MISS:      42647
LLC RFO          ACCESS:      10047 HIT:       9974 MISS:         73
LLC PREFETCH     ACCESS:     615997 HIT:     585034 MISS:      30963
LLC WRITE        ACCESS:     227293 HIT:     225919 MISS:       1374
LLC TRANSLATION  ACCESS:      11007 HIT:      10656 MISS:        351
LLC PREFETCH REQUESTED:          0 ISSUED:          0 USEFUL:          0 USELESS:          0
LLC AVERAGE MISS LATENCY: 235.8 cycles
cpu0_DTLB TOTAL        ACCESS:    7002845 HIT:    6186196 MISS:     816649
cpu0_DTLB LOAD         ACCESS:    7002845 HIT:    6186196 MISS:     816649
cpu0_DTLB RFO          ACCESS:          0 HIT:          0 MISS:          0
cpu0_DTLB PREFETCH     ACCESS:          0 HIT:          0 MISS:          0
cpu0_DTLB WRITE        ACCESS:          0 HIT:          0 MISS:          0
cpu0_DTLB TRANSLATION  ACCESS:          0 HIT:          0 MISS:          0
cpu0_DTLB PREFETCH REQUESTED:          0 ISSUED:          0 USEFUL:          0 USELESS:          0
cpu0_DTLB AVERAGE MISS LATENCY: 8.242 cycles
cpu0_ITLB TOTAL        ACCESS:          0 HIT:          0 MISS:          0
cpu0_ITLB LOAD         ACCESS:          0 HIT:          0 MISS:          0
cpu0_ITLB RFO          ACCESS:          0 HIT:          0 MISS:          0
cpu0_ITLB PREFETCH     ACCESS:          0 HIT:          0 MISS:          0
cpu0_ITLB WRITE        ACCESS:          0 HIT:          0 MISS:          0
cpu0_ITLB TRANSLATION  ACCESS:          0 HIT:          0 MISS:          0
cpu0_ITLB PREFETCH REQUESTED:          0 ISSUED:          0 USEFUL:          0 USELESS:          0
cpu0_ITLB AVERAGE MISS LATENCY: -nan cycles
cpu0_L1D TOTAL        ACCESS:   14379388 HIT:   12268760 MISS:    2110628
cpu0_L1D LOAD         ACCESS:    6605943 HIT:    5641448 MISS:     964495
cpu0_L1D RFO          ACCESS:          0 HIT:          0 MISS:          0
cpu0_L1D PREFETCH     ACCESS:    6461236 HIT:    5359585 MISS:    1101651
cpu0_L1D WRITE        ACCESS:    1070052 HIT:    1047139 MISS:      22913
cpu0_L1D TRANSLATION  ACCESS:     242157 HIT:     220588 MISS:      21569
cpu0_L1D PREFETCH REQUESTED:    6609538 ISSUED:    6461230 USEFUL:      98888 USELESS:     642762
cpu0_L1D AVERAGE MISS LATENCY: 27.41 cycles
cpu0_L1I TOTAL        ACCESS:          0 HIT:          0 MISS:          0
cpu0_L1I LOAD         ACCESS:          0 HIT:          0 MISS:          0
cpu0_L1I RFO          ACCESS:          0 HIT:          0 MISS:          0
cpu0_L1I PREFETCH     ACCESS:          0 HIT:          0 MISS:          0
cpu0_L1I WRITE        ACCESS:          0 HIT:          0 MISS:          0
cpu0_L1I TRANSLATION  ACCESS:          0 HIT:          0 MISS:          0
cpu0_L1I PREFETCH REQUESTED:          0 ISSUED:          0 USEFUL:          0 USELESS:          0
cpu0_L1I AVERAGE MISS LATENCY: -nan cycles
cpu0_L2C TOTAL        ACCESS:    1733423 HIT:     508599 MISS:    1224824
cpu0_L2C LOAD         ACCESS:     685268 HIT:      97547 MISS:     587721
cpu0_L2C RFO          ACCESS:      20314 HIT:      10267 MISS:      10047
cpu0_L2C PREFETCH     ACCESS:     741645 HIT:     125645 MISS:     616000
cpu0_L2C WRITE        ACCESS:     265208 HIT:     265159 MISS:         49
cpu0_L2C TRANSLATION  ACCESS:      20988 HIT:       9981 MISS:      11007
cpu0_L2C PREFETCH REQUESTED:         24 ISSUED:         24 USEFUL:          5 USELESS:         15
cpu0_L2C AVERAGE MISS LATENCY: 34.58 cycles
cpu0_STLB TOTAL        ACCESS:     622301 HIT:     380145 MISS:     242156
cpu0_STLB LOAD         ACCESS:     622301 HIT:     380145 MISS:     242156
cpu0_STLB RFO          ACCESS:          0 HIT:          0 MISS:          0
cpu0_STLB PREFETCH     ACCESS:          0 HIT:          0 MISS:          0
cpu0_STLB WRITE        ACCESS:          0 HIT:          0 MISS:          0
cpu0_STLB TRANSLATION  ACCESS:          0 HIT:          0 MISS:          0
cpu0_STLB PREFETCH REQUESTED:          0 ISSUED:          0 USEFUL:          0 USELESS:          0
cpu0_STLB AVERAGE MISS LATENCY: 8.754 cycles

DRAM Statistics

Channel 0 RQ ROW_BUFFER_HIT:      12454
  ROW_BUFFER_MISS:      61511
 AVG DBUS CONGESTED CYCLE: 3.972
WQ ROW_BUFFER_HIT: Channel 0 
  ROW_BUFFER_MISS:       4462
  FULL:      31510
