WARNING: physical memory size is smaller than virtual memory size.

*** ChampSim Multicore Out-of-Order Simulator ***
Warmup Instructions: 25000000
Simulation Instructions: 25000000
Number of CPUs: 1
Page size: 4096

Off-chip DRAM Size: 4 GiB Channels: 1 Width: 64-bit Data Race: 800 MT/s
Heartbeat CPU 0 instructions: 10000001 cycles: 2535625 heartbeat IPC: 3.944 cumulative IPC: 3.944 (Simulation time: 00 hr 00 min 29 sec)
Heartbeat CPU 0 instructions: 20000003 cycles: 5066545 heartbeat IPC: 3.951 cumulative IPC: 3.947 (Simulation time: 00 hr 01 min 02 sec)
Warmup finished CPU 0 instructions: 25000003 cycles: 6333736 cumulative IPC: 3.947 (Simulation time: 00 hr 01 min 17 sec)
Warmup complete CPU 0 instructions: 25000003 cycles: 6333736 cumulative IPC: 3.947 (Simulation time: 00 hr 01 min 17 sec)
Heartbeat CPU 0 instructions: 30000000 cycles: 8291819 heartbeat IPC: 3.101 cumulative IPC: 2.554 (Simulation time: 00 hr 01 min 40 sec)
Heartbeat CPU 0 instructions: 40000000 cycles: 13810278 heartbeat IPC: 1.812 cumulative IPC: 2.006 (Simulation time: 00 hr 02 min 37 sec)
Heartbeat CPU 0 instructions: 50000002 cycles: 20305589 heartbeat IPC: 1.54 cumulative IPC: 1.789 (Simulation time: 00 hr 03 min 39 sec)
Simulation finished CPU 0 instructions: 25000002 cycles: 13971855 cumulative IPC: 1.789 (Simulation time: 00 hr 03 min 39 sec)
Simulation complete CPU 0 instructions: 25000002 cycles: 13971855 cumulative IPC: 1.789 (Simulation time: 00 hr 03 min 39 sec)

ChampSim completed all CPUs

=== Simulation ===
CPU 0 runs ./traces/bzip2_259B.trace.xz
Region of Interest Statistics

CPU 0 cumulative IPC: 1.789 instructions: 25000002 cycles: 13971855
CPU 0 Branch Prediction Accuracy: 90.27% MPKI: 17.81 Average ROB Occupancy at Mispredict: 17.43
Branch type MPKI
BRANCH_DIRECT_JUMP: 0.034
BRANCH_INDIRECT: 0.0166
BRANCH_CONDITIONAL: 17.8
BRANCH_DIRECT_CALL: 4e-05
BRANCH_INDIRECT_CALL: 0
BRANCH_RETURN: 4e-05

LLC TOTAL        ACCESS:     244039 HIT:     200674 MISS:      43365
LLC LOAD         ACCESS:      79362 HIT:      71652 MISS:       7710
LLC RFO          ACCESS:      25429 HIT:      11107 MISS:      14322
LLC PREFETCH     ACCESS:     116077 HIT:      95173 MISS:      20904
LLC WRITE        ACCESS:      23139 HIT:      22716 MISS:        423
LLC TRANSLATION  ACCESS:         32 HIT:         26 MISS:          6
LLC PREFETCH REQUESTED:          0 ISSUED:          0 USEFUL:          0 USELESS:          0
LLC AVERAGE MISS LATENCY: 661.7 cycles
cpu0_DTLB TOTAL        ACCESS:    5473080 HIT:    5316074 MISS:     157006
cpu0_DTLB LOAD         ACCESS:    5473080 HIT:    5316074 MISS:     157006
cpu0_DTLB RFO          ACCESS:          0 HIT:          0 MISS:          0
cpu0_DTLB PREFETCH     ACCESS:          0 HIT:          0 MISS:          0
cpu0_DTLB WRITE        ACCESS:          0 HIT:          0 MISS:          0
cpu0_DTLB TRANSLATION  ACCESS:          0 HIT:          0 MISS:          0
cpu0_DTLB PREFETCH REQUESTED:          0 ISSUED:          0 USEFUL:          0 USELESS:          0
cpu0_DTLB AVERAGE MISS LATENCY: 7.954 cycles
cpu0_ITLB TOTAL        ACCESS:        605 HIT:        603 MISS:          2
cpu0_ITLB LOAD         ACCESS:        605 HIT:        603 MISS:          2
cpu0_ITLB RFO          ACCESS:          0 HIT:          0 MISS:          0
cpu0_ITLB PREFETCH     ACCESS:          0 HIT:          0 MISS:          0
cpu0_ITLB WRITE        ACCESS:          0 HIT:          0 MISS:          0
cpu0_ITLB TRANSLATION  ACCESS:          0 HIT:          0 MISS:          0
cpu0_ITLB PREFETCH REQUESTED:          0 ISSUED:          0 USEFUL:          0 USELESS:          0
cpu0_ITLB AVERAGE MISS LATENCY: 171.5 cycles
cpu0_L1D TOTAL        ACCESS:    9837958 HIT:    9189569 MISS:     648389
cpu0_L1D LOAD         ACCESS:    3612672 HIT:    3448308 MISS:     164364
cpu0_L1D RFO          ACCESS:          0 HIT:          0 MISS:          0
cpu0_L1D PREFETCH     ACCESS:    3515833 HIT:    3297706 MISS:     218127
cpu0_L1D WRITE        ACCESS:    2709339 HIT:    2443535 MISS:     265804
cpu0_L1D TRANSLATION  ACCESS:        114 HIT:         20 MISS:         94
cpu0_L1D PREFETCH REQUESTED:    3854527 ISSUED:    3515832 USEFUL:      41979 USELESS:     144335
cpu0_L1D AVERAGE MISS LATENCY: 55.14 cycles
cpu0_L1I TOTAL        ACCESS:        671 HIT:        527 MISS:        144
cpu0_L1I LOAD         ACCESS:        671 HIT:        527 MISS:        144
cpu0_L1I RFO          ACCESS:          0 HIT:          0 MISS:          0
cpu0_L1I PREFETCH     ACCESS:          0 HIT:          0 MISS:          0
cpu0_L1I WRITE        ACCESS:          0 HIT:          0 MISS:          0
cpu0_L1I TRANSLATION  ACCESS:          0 HIT:          0 MISS:          0
cpu0_L1I PREFETCH REQUESTED:          0 ISSUED:          0 USEFUL:          0 USELESS:          0
cpu0_L1I AVERAGE MISS LATENCY: 169.6 cycles
cpu0_L2C TOTAL        ACCESS:     422016 HIT:     198890 MISS:     223126
cpu0_L2C LOAD         ACCESS:     155093 HIT:      75422 MISS:      79671
cpu0_L2C RFO          ACCESS:      31530 HIT:       6101 MISS:      25429
cpu0_L2C PREFETCH     ACCESS:     202551 HIT:      84571 MISS:     117980
cpu0_L2C WRITE        ACCESS:      32748 HIT:      32734 MISS:         14
cpu0_L2C TRANSLATION  ACCESS:         94 HIT:         62 MISS:         32
cpu0_L2C PREFETCH REQUESTED:      16346 ISSUED:      16346 USEFUL:        611 USELESS:        366
cpu0_L2C AVERAGE MISS LATENCY: 148.5 cycles
cpu0_STLB TOTAL        ACCESS:     153723 HIT:     153609 MISS:        114
cpu0_STLB LOAD         ACCESS:     153723 HIT:     153609 MISS:        114
cpu0_STLB RFO          ACCESS:          0 HIT:          0 MISS:          0
cpu0_STLB PREFETCH     ACCESS:          0 HIT:          0 MISS:          0
cpu0_STLB WRITE        ACCESS:          0 HIT:          0 MISS:          0
cpu0_STLB TRANSLATION  ACCESS:          0 HIT:          0 MISS:          0
cpu0_STLB PREFETCH REQUESTED:          0 ISSUED:          0 USEFUL:          0 USELESS:          0
cpu0_STLB AVERAGE MISS LATENCY: 275.1 cycles

DRAM Statistics

Channel 0 RQ ROW_BUFFER_HIT:      10563
  ROW_BUFFER_MISS:      32250
 AVG DBUS CONGESTED CYCLE: 3.954
WQ ROW_BUFFER_HIT: Channel 0 
  ROW_BUFFER_MISS:       1827
  FULL:      17860
