WARNING: physical memory size is smaller than virtual memory size.

*** ChampSim Multicore Out-of-Order Simulator ***
Warmup Instructions: 25000000
Simulation Instructions: 25000000
Number of CPUs: 1
Page size: 4096

Off-chip DRAM Size: 4 GiB Channels: 1 Width: 64-bit Data Race: 800 MT/s
Heartbeat CPU 0 instructions: 10000002 cycles: 2566444 heartbeat IPC: 3.896 cumulative IPC: 3.896 (Simulation time: 00 hr 00 min 40 sec)
Heartbeat CPU 0 instructions: 20000002 cycles: 5069383 heartbeat IPC: 3.995 cumulative IPC: 3.945 (Simulation time: 00 hr 01 min 23 sec)
Warmup finished CPU 0 instructions: 25000001 cycles: 6383337 cumulative IPC: 3.916 (Simulation time: 00 hr 01 min 46 sec)
Warmup complete CPU 0 instructions: 25000001 cycles: 6383337 cumulative IPC: 3.916 (Simulation time: 00 hr 01 min 46 sec)
Heartbeat CPU 0 instructions: 30000000 cycles: 9513005 heartbeat IPC: 2.25 cumulative IPC: 1.598 (Simulation time: 00 hr 02 min 27 sec)
Heartbeat CPU 0 instructions: 40000000 cycles: 21053037 heartbeat IPC: 0.8665 cumulative IPC: 1.023 (Simulation time: 00 hr 04 min 32 sec)
Heartbeat CPU 0 instructions: 50000002 cycles: 32078870 heartbeat IPC: 0.907 cumulative IPC: 0.9729 (Simulation time: 00 hr 06 min 38 sec)
Simulation finished CPU 0 instructions: 25000001 cycles: 25695534 cumulative IPC: 0.9729 (Simulation time: 00 hr 06 min 38 sec)
Simulation complete CPU 0 instructions: 25000001 cycles: 25695534 cumulative IPC: 0.9729 (Simulation time: 00 hr 06 min 38 sec)

ChampSim completed all CPUs

=== Simulation ===
CPU 0 runs ./traces/cactusADM_1495B.trace.xz
Region of Interest Statistics

CPU 0 cumulative IPC: 0.9729 instructions: 25000001 cycles: 25695534
CPU 0 Branch Prediction Accuracy: 98.22% MPKI: 0.03736 Average ROB Occupancy at Mispredict: 276.5
Branch type MPKI
BRANCH_DIRECT_JUMP: 0
BRANCH_INDIRECT: 0
BRANCH_CONDITIONAL: 0.0374
BRANCH_DIRECT_CALL: 0
BRANCH_INDIRECT_CALL: 0
BRANCH_RETURN: 0

LLC TOTAL        ACCESS:     316015 HIT:      75782 MISS:     240233
LLC LOAD         ACCESS:      36881 HIT:       2887 MISS:      33994
LLC RFO          ACCESS:      67006 HIT:        946 MISS:      66060
LLC PREFETCH     ACCESS:     134047 HIT:       5325 MISS:     128722
LLC WRITE        ACCESS:      66981 HIT:      66498 MISS:        483
LLC TRANSLATION  ACCESS:      11100 HIT:        126 MISS:      10974
LLC PREFETCH REQUESTED:          0 ISSUED:          0 USEFUL:          0 USELESS:          0
LLC AVERAGE MISS LATENCY: 1051 cycles
cpu0_DTLB TOTAL        ACCESS:    5782096 HIT:    5238173 MISS:     543923
cpu0_DTLB LOAD         ACCESS:    5782096 HIT:    5238173 MISS:     543923
cpu0_DTLB RFO          ACCESS:          0 HIT:          0 MISS:          0
cpu0_DTLB PREFETCH     ACCESS:          0 HIT:          0 MISS:          0
cpu0_DTLB WRITE        ACCESS:          0 HIT:          0 MISS:          0
cpu0_DTLB TRANSLATION  ACCESS:          0 HIT:          0 MISS:          0
cpu0_DTLB PREFETCH REQUESTED:          0 ISSUED:          0 USEFUL:          0 USELESS:          0
cpu0_DTLB AVERAGE MISS LATENCY: 31.77 cycles
cpu0_ITLB TOTAL        ACCESS:    3538019 HIT:    3538019 MISS:          0
cpu0_ITLB LOAD         ACCESS:    3538019 HIT:    3538019 MISS:          0
cpu0_ITLB RFO          ACCESS:          0 HIT:          0 MISS:          0
cpu0_ITLB PREFETCH     ACCESS:          0 HIT:          0 MISS:          0
cpu0_ITLB WRITE        ACCESS:          0 HIT:          0 MISS:          0
cpu0_ITLB TRANSLATION  ACCESS:          0 HIT:          0 MISS:          0
cpu0_ITLB PREFETCH REQUESTED:          0 ISSUED:          0 USEFUL:          0 USELESS:          0
cpu0_ITLB AVERAGE MISS LATENCY: -nan cycles
cpu0_L1D TOTAL        ACCESS:    9974626 HIT:    9135141 MISS:     839485
cpu0_L1D LOAD         ACCESS:    5828185 HIT:    5605626 MISS:     222559
cpu0_L1D RFO          ACCESS:          0 HIT:          0 MISS:          0
cpu0_L1D PREFETCH     ACCESS:     995113 HIT:     850623 MISS:     144490
cpu0_L1D WRITE        ACCESS:    2915458 HIT:    2569923 MISS:     345535
cpu0_L1D TRANSLATION  ACCESS:     235870 HIT:     108969 MISS:     126901
cpu0_L1D PREFETCH REQUESTED:    6468658 ISSUED:     995113 USEFUL:      99844 USELESS:       4507
cpu0_L1D AVERAGE MISS LATENCY: 192.1 cycles
cpu0_L1I TOTAL        ACCESS:    4644925 HIT:    4644925 MISS:          0
cpu0_L1I LOAD         ACCESS:    4644925 HIT:    4644925 MISS:          0
cpu0_L1I RFO          ACCESS:          0 HIT:          0 MISS:          0
cpu0_L1I PREFETCH     ACCESS:          0 HIT:          0 MISS:          0
cpu0_L1I WRITE        ACCESS:          0 HIT:          0 MISS:          0
cpu0_L1I TRANSLATION  ACCESS:          0 HIT:          0 MISS:          0
cpu0_L1I PREFETCH REQUESTED:          0 ISSUED:          0 USEFUL:          0 USELESS:          0
cpu0_L1I AVERAGE MISS LATENCY: -nan cycles
cpu0_L2C TOTAL        ACCESS:     855557 HIT:     603864 MISS:     251693
cpu0_L2C LOAD         ACCESS:     188569 HIT:     151170 MISS:      37399
cpu0_L2C RFO          ACCESS:      75047 HIT:       8041 MISS:      67006
cpu0_L2C PREFETCH     ACCESS:     387461 HIT:     251370 MISS:     136091
cpu0_L2C WRITE        ACCESS:      77890 HIT:      77793 MISS:         97
cpu0_L2C TRANSLATION  ACCESS:     126590 HIT:     115490 MISS:      11100
cpu0_L2C PREFETCH REQUESTED:     283381 ISSUED:     283110 USEFUL:      67824 USELESS:        318
cpu0_L2C AVERAGE MISS LATENCY: 974.5 cycles
cpu0_STLB TOTAL        ACCESS:     398455 HIT:     270729 MISS:     127726
cpu0_STLB LOAD         ACCESS:     398455 HIT:     270729 MISS:     127726
cpu0_STLB RFO          ACCESS:          0 HIT:          0 MISS:          0
cpu0_STLB PREFETCH     ACCESS:          0 HIT:          0 MISS:          0
cpu0_STLB WRITE        ACCESS:          0 HIT:          0 MISS:          0
cpu0_STLB TRANSLATION  ACCESS:          0 HIT:          0 MISS:          0
cpu0_STLB PREFETCH REQUESTED:          0 ISSUED:          0 USEFUL:          0 USELESS:          0
cpu0_STLB AVERAGE MISS LATENCY: 152.2 cycles

DRAM Statistics

Channel 0 RQ ROW_BUFFER_HIT:      34929
  ROW_BUFFER_MISS:     201186
 AVG DBUS CONGESTED CYCLE: 3.94
WQ ROW_BUFFER_HIT: Channel 0 
  ROW_BUFFER_MISS:       1416
  FULL:      64036
