WARNING: physical memory size is smaller than virtual memory size.

*** ChampSim Multicore Out-of-Order Simulator ***
Warmup Instructions: 25000000
Simulation Instructions: 25000000
Number of CPUs: 1
Page size: 4096

Off-chip DRAM Size: 4 GiB Channels: 1 Width: 64-bit Data Race: 800 MT/s
Heartbeat CPU 0 instructions: 10000001 cycles: 2514265 heartbeat IPC: 3.977 cumulative IPC: 3.977 (Simulation time: 00 hr 00 min 39 sec)
Heartbeat CPU 0 instructions: 20000002 cycles: 5071084 heartbeat IPC: 3.911 cumulative IPC: 3.944 (Simulation time: 00 hr 01 min 23 sec)
Warmup finished CPU 0 instructions: 25000003 cycles: 6387465 cumulative IPC: 3.914 (Simulation time: 00 hr 01 min 46 sec)
Warmup complete CPU 0 instructions: 25000003 cycles: 6387465 cumulative IPC: 3.914 (Simulation time: 00 hr 01 min 46 sec)
Heartbeat CPU 0 instructions: 30000002 cycles: 9875449 heartbeat IPC: 2.081 cumulative IPC: 1.433 (Simulation time: 00 hr 02 min 30 sec)
Heartbeat CPU 0 instructions: 40000003 cycles: 20955740 heartbeat IPC: 0.9025 cumulative IPC: 1.03 (Simulation time: 00 hr 04 min 32 sec)
Heartbeat CPU 0 instructions: 50000003 cycles: 31827012 heartbeat IPC: 0.9199 cumulative IPC: 0.9827 (Simulation time: 00 hr 06 min 36 sec)
Simulation finished CPU 0 instructions: 25000000 cycles: 25439548 cumulative IPC: 0.9827 (Simulation time: 00 hr 06 min 36 sec)
Simulation complete CPU 0 instructions: 25000000 cycles: 25439548 cumulative IPC: 0.9827 (Simulation time: 00 hr 06 min 36 sec)

ChampSim completed all CPUs

=== Simulation ===
CPU 0 runs ./traces/cactusADM_734B.trace.xz
Region of Interest Statistics

CPU 0 cumulative IPC: 0.9827 instructions: 25000000 cycles: 25439548
CPU 0 Branch Prediction Accuracy: 98.22% MPKI: 0.03732 Average ROB Occupancy at Mispredict: 276.4
Branch type MPKI
BRANCH_DIRECT_JUMP: 0
BRANCH_INDIRECT: 0
BRANCH_CONDITIONAL: 0.0373
BRANCH_DIRECT_CALL: 0
BRANCH_INDIRECT_CALL: 0
BRANCH_RETURN: 0

LLC TOTAL        ACCESS:     315089 HIT:      74268 MISS:     240821
LLC LOAD         ACCESS:      35119 HIT:       2464 MISS:      32655
LLC RFO          ACCESS:      67009 HIT:       1019 MISS:      65990
LLC PREFETCH     ACCESS:     134975 HIT:       4774 MISS:     130201
LLC WRITE        ACCESS:      66207 HIT:      65808 MISS:        399
LLC TRANSLATION  ACCESS:      11779 HIT:        203 MISS:      11576
LLC PREFETCH REQUESTED:          0 ISSUED:          0 USEFUL:          0 USELESS:          0
LLC AVERAGE MISS LATENCY: 1041 cycles
cpu0_DTLB TOTAL        ACCESS:    5751469 HIT:    5237789 MISS:     513680
cpu0_DTLB LOAD         ACCESS:    5751469 HIT:    5237789 MISS:     513680
cpu0_DTLB RFO          ACCESS:          0 HIT:          0 MISS:          0
cpu0_DTLB PREFETCH     ACCESS:          0 HIT:          0 MISS:          0
cpu0_DTLB WRITE        ACCESS:          0 HIT:          0 MISS:          0
cpu0_DTLB TRANSLATION  ACCESS:          0 HIT:          0 MISS:          0
cpu0_DTLB PREFETCH REQUESTED:          0 ISSUED:          0 USEFUL:          0 USELESS:          0
cpu0_DTLB AVERAGE MISS LATENCY: 37.11 cycles
cpu0_ITLB TOTAL        ACCESS:    3539206 HIT:    3539206 MISS:          0
cpu0_ITLB LOAD         ACCESS:    3539206 HIT:    3539206 MISS:          0
cpu0_ITLB RFO          ACCESS:          0 HIT:          0 MISS:          0
cpu0_ITLB PREFETCH     ACCESS:          0 HIT:          0 MISS:          0
cpu0_ITLB WRITE        ACCESS:          0 HIT:          0 MISS:          0
cpu0_ITLB TRANSLATION  ACCESS:          0 HIT:          0 MISS:          0
cpu0_ITLB PREFETCH REQUESTED:          0 ISSUED:          0 USEFUL:          0 USELESS:          0
cpu0_ITLB AVERAGE MISS LATENCY: -nan cycles
cpu0_L1D TOTAL        ACCESS:   10014767 HIT:    9177566 MISS:     837201
cpu0_L1D LOAD         ACCESS:    5855779 HIT:    5628235 MISS:     227544
cpu0_L1D RFO          ACCESS:          0 HIT:          0 MISS:          0
cpu0_L1D PREFETCH     ACCESS:     997503 HIT:     847177 MISS:     150326
cpu0_L1D WRITE        ACCESS:    2915541 HIT:    2586986 MISS:     328555
cpu0_L1D TRANSLATION  ACCESS:     245944 HIT:     115168 MISS:     130776
cpu0_L1D PREFETCH REQUESTED:    6466834 ISSUED:     997506 USEFUL:     104467 USELESS:       4260
cpu0_L1D AVERAGE MISS LATENCY: 196.9 cycles
cpu0_L1I TOTAL        ACCESS:    4645393 HIT:    4645393 MISS:          0
cpu0_L1I LOAD         ACCESS:    4645393 HIT:    4645393 MISS:          0
cpu0_L1I RFO          ACCESS:          0 HIT:          0 MISS:          0
cpu0_L1I PREFETCH     ACCESS:          0 HIT:          0 MISS:          0
cpu0_L1I WRITE        ACCESS:          0 HIT:          0 MISS:          0
cpu0_L1I TRANSLATION  ACCESS:          0 HIT:          0 MISS:          0
cpu0_L1I PREFETCH REQUESTED:          0 ISSUED:          0 USEFUL:          0 USELESS:          0
cpu0_L1I AVERAGE MISS LATENCY: -nan cycles
cpu0_L2C TOTAL        ACCESS:     835611 HIT:     584110 MISS:     251501
cpu0_L2C LOAD         ACCESS:     187001 HIT:     151415 MISS:      35586
cpu0_L2C RFO          ACCESS:      67971 HIT:        962 MISS:      67009
cpu0_L2C PREFETCH     ACCESS:     379897 HIT:     242878 MISS:     137019
cpu0_L2C WRITE        ACCESS:      70020 HIT:      69912 MISS:        108
cpu0_L2C TRANSLATION  ACCESS:     130722 HIT:     118943 MISS:      11779
cpu0_L2C PREFETCH REQUESTED:     271389 ISSUED:     271168 USEFUL:      63745 USELESS:        308
cpu0_L2C AVERAGE MISS LATENCY: 974.7 cycles
cpu0_STLB TOTAL        ACCESS:     390602 HIT:     257483 MISS:     133119
cpu0_STLB LOAD         ACCESS:     390602 HIT:     257483 MISS:     133119
cpu0_STLB RFO          ACCESS:          0 HIT:          0 MISS:          0
cpu0_STLB PREFETCH     ACCESS:          0 HIT:          0 MISS:          0
cpu0_STLB WRITE        ACCESS:          0 HIT:          0 MISS:          0
cpu0_STLB TRANSLATION  ACCESS:          0 HIT:          0 MISS:          0
cpu0_STLB PREFETCH REQUESTED:          0 ISSUED:          0 USEFUL:          0 USELESS:          0
cpu0_STLB AVERAGE MISS LATENCY: 162.9 cycles

DRAM Statistics

Channel 0 RQ ROW_BUFFER_HIT:      32950
  ROW_BUFFER_MISS:     203936
 AVG DBUS CONGESTED CYCLE: 3.939
WQ ROW_BUFFER_HIT: Channel 0 
  ROW_BUFFER_MISS:       1229
  FULL:      64481
