WARNING: physical memory size is smaller than virtual memory size.

*** ChampSim Multicore Out-of-Order Simulator ***
Warmup Instructions: 25000000
Simulation Instructions: 25000000
Number of CPUs: 1
Page size: 4096

Off-chip DRAM Size: 4 GiB Channels: 1 Width: 64-bit Data Race: 800 MT/s
Heartbeat CPU 0 instructions: 10000000 cycles: 2510846 heartbeat IPC: 3.983 cumulative IPC: 3.983 (Simulation time: 00 hr 00 min 39 sec)
Heartbeat CPU 0 instructions: 20000002 cycles: 5069408 heartbeat IPC: 3.908 cumulative IPC: 3.945 (Simulation time: 00 hr 01 min 23 sec)
Warmup finished CPU 0 instructions: 25000003 cycles: 6384334 cumulative IPC: 3.916 (Simulation time: 00 hr 01 min 47 sec)
Warmup complete CPU 0 instructions: 25000003 cycles: 6384334 cumulative IPC: 3.916 (Simulation time: 00 hr 01 min 47 sec)
Heartbeat CPU 0 instructions: 30000002 cycles: 9928377 heartbeat IPC: 2.058 cumulative IPC: 1.411 (Simulation time: 00 hr 02 min 31 sec)
Heartbeat CPU 0 instructions: 40000000 cycles: 21053397 heartbeat IPC: 0.8989 cumulative IPC: 1.023 (Simulation time: 00 hr 04 min 36 sec)
Heartbeat CPU 0 instructions: 50000003 cycles: 31988575 heartbeat IPC: 0.9145 cumulative IPC: 0.9764 (Simulation time: 00 hr 06 min 39 sec)
Simulation finished CPU 0 instructions: 25000000 cycles: 25604242 cumulative IPC: 0.9764 (Simulation time: 00 hr 06 min 39 sec)
Simulation complete CPU 0 instructions: 25000000 cycles: 25604242 cumulative IPC: 0.9764 (Simulation time: 00 hr 06 min 39 sec)

ChampSim completed all CPUs

=== Simulation ===
CPU 0 runs ./traces/cactusADM_1039B.trace.xz
Region of Interest Statistics

CPU 0 cumulative IPC: 0.9764 instructions: 25000000 cycles: 25604242
CPU 0 Branch Prediction Accuracy: 98.22% MPKI: 0.03732 Average ROB Occupancy at Mispredict: 275.8
Branch type MPKI
BRANCH_DIRECT_JUMP: 0
BRANCH_INDIRECT: 0
BRANCH_CONDITIONAL: 0.0373
BRANCH_DIRECT_CALL: 0
BRANCH_INDIRECT_CALL: 0
BRANCH_RETURN: 0

LLC TOTAL        ACCESS:     315419 HIT:      76074 MISS:     239345
LLC LOAD         ACCESS:      36932 HIT:       3405 MISS:      33527
LLC RFO          ACCESS:      67006 HIT:       1089 MISS:      65917
LLC PREFETCH     ACCESS:     134702 HIT:       6010 MISS:     128692
LLC WRITE        ACCESS:      66023 HIT:      65455 MISS:        568
LLC TRANSLATION  ACCESS:      10756 HIT:        115 MISS:      10641
LLC PREFETCH REQUESTED:          0 ISSUED:          0 USEFUL:          0 USELESS:          0
LLC AVERAGE MISS LATENCY: 1064 cycles
cpu0_DTLB TOTAL        ACCESS:    5845198 HIT:    5255702 MISS:     589496
cpu0_DTLB LOAD         ACCESS:    5845198 HIT:    5255702 MISS:     589496
cpu0_DTLB RFO          ACCESS:          0 HIT:          0 MISS:          0
cpu0_DTLB PREFETCH     ACCESS:          0 HIT:          0 MISS:          0
cpu0_DTLB WRITE        ACCESS:          0 HIT:          0 MISS:          0
cpu0_DTLB TRANSLATION  ACCESS:          0 HIT:          0 MISS:          0
cpu0_DTLB PREFETCH REQUESTED:          0 ISSUED:          0 USEFUL:          0 USELESS:          0
cpu0_DTLB AVERAGE MISS LATENCY: 29.76 cycles
cpu0_ITLB TOTAL        ACCESS:    3539067 HIT:    3539067 MISS:          0
cpu0_ITLB LOAD         ACCESS:    3539067 HIT:    3539067 MISS:          0
cpu0_ITLB RFO          ACCESS:          0 HIT:          0 MISS:          0
cpu0_ITLB PREFETCH     ACCESS:          0 HIT:          0 MISS:          0
cpu0_ITLB WRITE        ACCESS:          0 HIT:          0 MISS:          0
cpu0_ITLB TRANSLATION  ACCESS:          0 HIT:          0 MISS:          0
cpu0_ITLB PREFETCH REQUESTED:          0 ISSUED:          0 USEFUL:          0 USELESS:          0
cpu0_ITLB AVERAGE MISS LATENCY: -nan cycles
cpu0_L1D TOTAL        ACCESS:    9906871 HIT:    9084692 MISS:     822179
cpu0_L1D LOAD         ACCESS:    5775668 HIT:    5547907 MISS:     227761
cpu0_L1D RFO          ACCESS:          0 HIT:          0 MISS:          0
cpu0_L1D PREFETCH     ACCESS:     980451 HIT:     844669 MISS:     135782
cpu0_L1D WRITE        ACCESS:    2915530 HIT:    2581236 MISS:     334294
cpu0_L1D TRANSLATION  ACCESS:     235222 HIT:     110880 MISS:     124342
cpu0_L1D PREFETCH REQUESTED:    6411950 ISSUED:     980450 USEFUL:      93769 USELESS:       3589
cpu0_L1D AVERAGE MISS LATENCY: 195.4 cycles
cpu0_L1I TOTAL        ACCESS:    4645046 HIT:    4645046 MISS:          0
cpu0_L1I LOAD         ACCESS:    4645046 HIT:    4645046 MISS:          0
cpu0_L1I RFO          ACCESS:          0 HIT:          0 MISS:          0
cpu0_L1I PREFETCH     ACCESS:          0 HIT:          0 MISS:          0
cpu0_L1I WRITE        ACCESS:          0 HIT:          0 MISS:          0
cpu0_L1I TRANSLATION  ACCESS:          0 HIT:          0 MISS:          0
cpu0_L1I PREFETCH REQUESTED:          0 ISSUED:          0 USEFUL:          0 USELESS:          0
cpu0_L1I AVERAGE MISS LATENCY: -nan cycles
cpu0_L2C TOTAL        ACCESS:     854890 HIT:     602854 MISS:     252036
cpu0_L2C LOAD         ACCESS:     193139 HIT:     155709 MISS:      37430
cpu0_L2C RFO          ACCESS:      68893 HIT:       1887 MISS:      67006
cpu0_L2C PREFETCH     ACCESS:     397637 HIT:     260881 MISS:     136756
cpu0_L2C WRITE        ACCESS:      70907 HIT:      70819 MISS:         88
cpu0_L2C TRANSLATION  ACCESS:     124314 HIT:     113558 MISS:      10756
cpu0_L2C PREFETCH REQUESTED:     300347 ISSUED:     300274 USEFUL:      68001 USELESS:        328
cpu0_L2C AVERAGE MISS LATENCY: 975 cycles
cpu0_STLB TOTAL        ACCESS:     433566 HIT:     306688 MISS:     126878
cpu0_STLB LOAD         ACCESS:     433566 HIT:     306688 MISS:     126878
cpu0_STLB RFO          ACCESS:          0 HIT:          0 MISS:          0
cpu0_STLB PREFETCH     ACCESS:          0 HIT:          0 MISS:          0
cpu0_STLB WRITE        ACCESS:          0 HIT:          0 MISS:          0
cpu0_STLB TRANSLATION  ACCESS:          0 HIT:          0 MISS:          0
cpu0_STLB PREFETCH REQUESTED:          0 ISSUED:          0 USEFUL:          0 USELESS:          0
cpu0_STLB AVERAGE MISS LATENCY: 153.2 cycles

DRAM Statistics

Channel 0 RQ ROW_BUFFER_HIT:      34294
  ROW_BUFFER_MISS:     200801
 AVG DBUS CONGESTED CYCLE: 3.941
WQ ROW_BUFFER_HIT: Channel 0 
  ROW_BUFFER_MISS:       1344
  FULL:      64809
