WARNING: physical memory size is smaller than virtual memory size.

*** ChampSim Multicore Out-of-Order Simulator ***
Warmup Instructions: 25000000
Simulation Instructions: 25000000
Number of CPUs: 1
Page size: 4096

Off-chip DRAM Size: 4 GiB Channels: 1 Width: 64-bit Data Race: 800 MT/s
Heartbeat CPU 0 instructions: 10000003 cycles: 2500428 heartbeat IPC: 3.999 cumulative IPC: 3.999 (Simulation time: 00 hr 00 min 27 sec)
Heartbeat CPU 0 instructions: 20000002 cycles: 5000618 heartbeat IPC: 4 cumulative IPC: 4 (Simulation time: 00 hr 00 min 56 sec)
Warmup finished CPU 0 instructions: 25000002 cycles: 6250822 cumulative IPC: 3.999 (Simulation time: 00 hr 01 min 11 sec)
Warmup complete CPU 0 instructions: 25000002 cycles: 6250822 cumulative IPC: 3.999 (Simulation time: 00 hr 01 min 11 sec)
Heartbeat CPU 0 instructions: 30000000 cycles: 7968419 heartbeat IPC: 3.369 cumulative IPC: 2.911 (Simulation time: 00 hr 01 min 34 sec)
Heartbeat CPU 0 instructions: 40000002 cycles: 10982030 heartbeat IPC: 3.318 cumulative IPC: 3.17 (Simulation time: 00 hr 02 min 15 sec)
Heartbeat CPU 0 instructions: 50000002 cycles: 14116148 heartbeat IPC: 3.191 cumulative IPC: 3.179 (Simulation time: 00 hr 02 min 56 sec)
Simulation finished CPU 0 instructions: 25000000 cycles: 7865327 cumulative IPC: 3.179 (Simulation time: 00 hr 02 min 56 sec)
Simulation complete CPU 0 instructions: 25000000 cycles: 7865327 cumulative IPC: 3.179 (Simulation time: 00 hr 02 min 56 sec)

ChampSim completed all CPUs

=== Simulation ===
CPU 0 runs ./traces/calculix_2655B.trace.xz
Region of Interest Statistics

CPU 0 cumulative IPC: 3.179 instructions: 25000000 cycles: 7865327
CPU 0 Branch Prediction Accuracy: 98.05% MPKI: 0.7955 Average ROB Occupancy at Mispredict: 271.4
Branch type MPKI
BRANCH_DIRECT_JUMP: 0.00068
BRANCH_INDIRECT: 0
BRANCH_CONDITIONAL: 0.795
BRANCH_DIRECT_CALL: 0
BRANCH_INDIRECT_CALL: 0
BRANCH_RETURN: 4e-05

LLC TOTAL        ACCESS:     237200 HIT:     202392 MISS:      34808
LLC LOAD         ACCESS:      35443 HIT:      30675 MISS:       4768
LLC RFO          ACCESS:        110 HIT:        109 MISS:          1
LLC PREFETCH     ACCESS:     176434 HIT:     146524 MISS:      29910
LLC WRITE        ACCESS:      25031 HIT:      25000 MISS:         31
LLC TRANSLATION  ACCESS:        182 HIT:         84 MISS:         98
LLC PREFETCH REQUESTED:          0 ISSUED:          0 USEFUL:          0 USELESS:          0
LLC AVERAGE MISS LATENCY: 414.7 cycles
cpu0_DTLB TOTAL        ACCESS:    3990011 HIT:    3977310 MISS:      12701
cpu0_DTLB LOAD         ACCESS:    3990011 HIT:    3977310 MISS:      12701
cpu0_DTLB RFO          ACCESS:          0 HIT:          0 MISS:          0
cpu0_DTLB PREFETCH     ACCESS:          0 HIT:          0 MISS:          0
cpu0_DTLB WRITE        ACCESS:          0 HIT:          0 MISS:          0
cpu0_DTLB TRANSLATION  ACCESS:          0 HIT:          0 MISS:          0
cpu0_DTLB PREFETCH REQUESTED:          0 ISSUED:          0 USEFUL:          0 USELESS:          0
cpu0_DTLB AVERAGE MISS LATENCY: 9.789 cycles
cpu0_ITLB TOTAL        ACCESS:        922 HIT:        922 MISS:          0
cpu0_ITLB LOAD         ACCESS:        922 HIT:        922 MISS:          0
cpu0_ITLB RFO          ACCESS:          0 HIT:          0 MISS:          0
cpu0_ITLB PREFETCH     ACCESS:          0 HIT:          0 MISS:          0
cpu0_ITLB WRITE        ACCESS:          0 HIT:          0 MISS:          0
cpu0_ITLB TRANSLATION  ACCESS:          0 HIT:          0 MISS:          0
cpu0_ITLB PREFETCH REQUESTED:          0 ISSUED:          0 USEFUL:          0 USELESS:          0
cpu0_ITLB AVERAGE MISS LATENCY: -nan cycles
cpu0_L1D TOTAL        ACCESS:    8813039 HIT:    7697172 MISS:    1115867
cpu0_L1D LOAD         ACCESS:    4693565 HIT:    4270215 MISS:     423350
cpu0_L1D RFO          ACCESS:          0 HIT:          0 MISS:          0
cpu0_L1D PREFETCH     ACCESS:    3741511 HIT:    3050013 MISS:     691498
cpu0_L1D WRITE        ACCESS:     377416 HIT:     376774 MISS:        642
cpu0_L1D TRANSLATION  ACCESS:        547 HIT:        170 MISS:        377
cpu0_L1D PREFETCH REQUESTED:    4693666 ISSUED:    3741509 USEFUL:     241712 USELESS:       8247
cpu0_L1D AVERAGE MISS LATENCY: 6.659 cycles
cpu0_L1I TOTAL        ACCESS:       1010 HIT:       1010 MISS:          0
cpu0_L1I LOAD         ACCESS:       1010 HIT:       1010 MISS:          0
cpu0_L1I RFO          ACCESS:          0 HIT:          0 MISS:          0
cpu0_L1I PREFETCH     ACCESS:          0 HIT:          0 MISS:          0
cpu0_L1I WRITE        ACCESS:          0 HIT:          0 MISS:          0
cpu0_L1I TRANSLATION  ACCESS:          0 HIT:          0 MISS:          0
cpu0_L1I PREFETCH REQUESTED:          0 ISSUED:          0 USEFUL:          0 USELESS:          0
cpu0_L1I AVERAGE MISS LATENCY: -nan cycles
cpu0_L2C TOTAL        ACCESS:     494935 HIT:     278057 MISS:     216878
cpu0_L2C LOAD         ACCESS:      67149 HIT:      31268 MISS:      35881
cpu0_L2C RFO          ACCESS:        366 HIT:        256 MISS:        110
cpu0_L2C PREFETCH     ACCESS:     397270 HIT:     216617 MISS:     180653
cpu0_L2C WRITE        ACCESS:      29775 HIT:      29723 MISS:         52
cpu0_L2C TRANSLATION  ACCESS:        375 HIT:        193 MISS:        182
cpu0_L2C PREFETCH REQUESTED:     147307 ISSUED:     147307 USEFUL:      82063 USELESS:       2967
cpu0_L2C AVERAGE MISS LATENCY: 83.94 cycles
cpu0_STLB TOTAL        ACCESS:       4217 HIT:       3678 MISS:        539
cpu0_STLB LOAD         ACCESS:       4217 HIT:       3678 MISS:        539
cpu0_STLB RFO          ACCESS:          0 HIT:          0 MISS:          0
cpu0_STLB PREFETCH     ACCESS:          0 HIT:          0 MISS:          0
cpu0_STLB WRITE        ACCESS:          0 HIT:          0 MISS:          0
cpu0_STLB TRANSLATION  ACCESS:          0 HIT:          0 MISS:          0
cpu0_STLB PREFETCH REQUESTED:          0 ISSUED:          0 USEFUL:          0 USELESS:          0
cpu0_STLB AVERAGE MISS LATENCY: 279.6 cycles

DRAM Statistics

Channel 0 RQ ROW_BUFFER_HIT:      31538
  ROW_BUFFER_MISS:       3206
 AVG DBUS CONGESTED CYCLE: 3.917
WQ ROW_BUFFER_HIT: Channel 0 
  ROW_BUFFER_MISS:        172
  FULL:        916
