WARNING: physical memory size is smaller than virtual memory size.

*** ChampSim Multicore Out-of-Order Simulator ***
Warmup Instructions: 25000000
Simulation Instructions: 25000000
Number of CPUs: 1
Page size: 4096

Off-chip DRAM Size: 4 GiB Channels: 1 Width: 64-bit Data Race: 800 MT/s
Heartbeat CPU 0 instructions: 10000003 cycles: 2534757 heartbeat IPC: 3.945 cumulative IPC: 3.945 (Simulation time: 00 hr 00 min 29 sec)
Heartbeat CPU 0 instructions: 20000001 cycles: 5035064 heartbeat IPC: 4 cumulative IPC: 3.972 (Simulation time: 00 hr 00 min 59 sec)
Warmup finished CPU 0 instructions: 25000003 cycles: 6285146 cumulative IPC: 3.978 (Simulation time: 00 hr 01 min 14 sec)
Warmup complete CPU 0 instructions: 25000003 cycles: 6285146 cumulative IPC: 3.978 (Simulation time: 00 hr 01 min 14 sec)
Heartbeat CPU 0 instructions: 30000001 cycles: 7784460 heartbeat IPC: 3.637 cumulative IPC: 3.335 (Simulation time: 00 hr 01 min 34 sec)
Heartbeat CPU 0 instructions: 40000000 cycles: 10920092 heartbeat IPC: 3.189 cumulative IPC: 3.236 (Simulation time: 00 hr 02 min 17 sec)
Heartbeat CPU 0 instructions: 50000003 cycles: 14963827 heartbeat IPC: 2.473 cumulative IPC: 2.881 (Simulation time: 00 hr 03 min 04 sec)
Simulation finished CPU 0 instructions: 25000000 cycles: 8678682 cumulative IPC: 2.881 (Simulation time: 00 hr 03 min 04 sec)
Simulation complete CPU 0 instructions: 25000000 cycles: 8678682 cumulative IPC: 2.881 (Simulation time: 00 hr 03 min 04 sec)

ChampSim completed all CPUs

=== Simulation ===
CPU 0 runs ./traces/calculix_3812B.trace.xz
Region of Interest Statistics

CPU 0 cumulative IPC: 2.881 instructions: 25000000 cycles: 8678682
CPU 0 Branch Prediction Accuracy: 97.86% MPKI: 1.848 Average ROB Occupancy at Mispredict: 132.5
Branch type MPKI
BRANCH_DIRECT_JUMP: 0.0127
BRANCH_INDIRECT: 0.00208
BRANCH_CONDITIONAL: 1.83
BRANCH_DIRECT_CALL: 0.00068
BRANCH_INDIRECT_CALL: 0
BRANCH_RETURN: 0.00076

LLC TOTAL        ACCESS:     239007 HIT:     206820 MISS:      32187
LLC LOAD         ACCESS:      15680 HIT:      13295 MISS:       2385
LLC RFO          ACCESS:      28213 HIT:       7202 MISS:      21011
LLC PREFETCH     ACCESS:      88604 HIT:      80541 MISS:       8063
LLC WRITE        ACCESS:     106433 HIT:     105754 MISS:        679
LLC TRANSLATION  ACCESS:         77 HIT:         28 MISS:         49
LLC PREFETCH REQUESTED:          0 ISSUED:          0 USEFUL:          0 USELESS:          0
LLC AVERAGE MISS LATENCY: 762.7 cycles
cpu0_DTLB TOTAL        ACCESS:    5012976 HIT:    4991556 MISS:      21420
cpu0_DTLB LOAD         ACCESS:    5012976 HIT:    4991556 MISS:      21420
cpu0_DTLB RFO          ACCESS:          0 HIT:          0 MISS:          0
cpu0_DTLB PREFETCH     ACCESS:          0 HIT:          0 MISS:          0
cpu0_DTLB WRITE        ACCESS:          0 HIT:          0 MISS:          0
cpu0_DTLB TRANSLATION  ACCESS:          0 HIT:          0 MISS:          0
cpu0_DTLB PREFETCH REQUESTED:          0 ISSUED:          0 USEFUL:          0 USELESS:          0
cpu0_DTLB AVERAGE MISS LATENCY: 9.2 cycles
cpu0_ITLB TOTAL        ACCESS:      22172 HIT:      22130 MISS:         42
cpu0_ITLB LOAD         ACCESS:      22172 HIT:      22130 MISS:         42
cpu0_ITLB RFO          ACCESS:          0 HIT:          0 MISS:          0
cpu0_ITLB PREFETCH     ACCESS:          0 HIT:          0 MISS:          0
cpu0_ITLB WRITE        ACCESS:          0 HIT:          0 MISS:          0
cpu0_ITLB TRANSLATION  ACCESS:          0 HIT:          0 MISS:          0
cpu0_ITLB PREFETCH REQUESTED:          0 ISSUED:          0 USEFUL:          0 USELESS:          0
cpu0_ITLB AVERAGE MISS LATENCY: 3.095 cycles
cpu0_L1D TOTAL        ACCESS:    8982298 HIT:    7633595 MISS:    1348703
cpu0_L1D LOAD         ACCESS:    4441479 HIT:    3496573 MISS:     944906
cpu0_L1D RFO          ACCESS:          0 HIT:          0 MISS:          0
cpu0_L1D PREFETCH     ACCESS:    2173107 HIT:    1927490 MISS:     245617
cpu0_L1D WRITE        ACCESS:    2367214 HIT:    2209174 MISS:     158040
cpu0_L1D TRANSLATION  ACCESS:        498 HIT:        358 MISS:        140
cpu0_L1D PREFETCH REQUESTED:    4450713 ISSUED:    2173104 USEFUL:     104299 USELESS:      11687
cpu0_L1D AVERAGE MISS LATENCY: 19.8 cycles
cpu0_L1I TOTAL        ACCESS:      24881 HIT:      23442 MISS:       1439
cpu0_L1I LOAD         ACCESS:      24881 HIT:      23442 MISS:       1439
cpu0_L1I RFO          ACCESS:          0 HIT:          0 MISS:          0
cpu0_L1I PREFETCH     ACCESS:          0 HIT:          0 MISS:          0
cpu0_L1I WRITE        ACCESS:          0 HIT:          0 MISS:          0
cpu0_L1I TRANSLATION  ACCESS:          0 HIT:          0 MISS:          0
cpu0_L1I PREFETCH REQUESTED:          0 ISSUED:          0 USEFUL:          0 USELESS:          0
cpu0_L1I AVERAGE MISS LATENCY: 51.57 cycles
cpu0_L2C TOTAL        ACCESS:    1268424 HIT:    1028717 MISS:     239707
cpu0_L2C LOAD         ACCESS:     259140 HIT:     231800 MISS:      27340
cpu0_L2C RFO          ACCESS:      32307 HIT:       4094 MISS:      28213
cpu0_L2C PREFETCH     ACCESS:     706402 HIT:     524096 MISS:     182306
cpu0_L2C WRITE        ACCESS:     270435 HIT:     268664 MISS:       1771
cpu0_L2C TRANSLATION  ACCESS:        140 HIT:         63 MISS:         77
cpu0_L2C PREFETCH REQUESTED:     590757 ISSUED:     590415 USEFUL:      59286 USELESS:       1191
cpu0_L2C AVERAGE MISS LATENCY: 112.7 cycles
cpu0_STLB TOTAL        ACCESS:      12045 HIT:      11549 MISS:        496
cpu0_STLB LOAD         ACCESS:      12045 HIT:      11549 MISS:        496
cpu0_STLB RFO          ACCESS:          0 HIT:          0 MISS:          0
cpu0_STLB PREFETCH     ACCESS:          0 HIT:          0 MISS:          0
cpu0_STLB WRITE        ACCESS:          0 HIT:          0 MISS:          0
cpu0_STLB TRANSLATION  ACCESS:          0 HIT:          0 MISS:          0
cpu0_STLB PREFETCH REQUESTED:          0 ISSUED:          0 USEFUL:          0 USELESS:          0
cpu0_STLB AVERAGE MISS LATENCY: 278.1 cycles

DRAM Statistics

Channel 0 RQ ROW_BUFFER_HIT:      23161
  ROW_BUFFER_MISS:       8146
 AVG DBUS CONGESTED CYCLE: 3.962
WQ ROW_BUFFER_HIT: Channel 0 
  ROW_BUFFER_MISS:       1423
  FULL:       8064
