WARNING: physical memory size is smaller than virtual memory size.

*** ChampSim Multicore Out-of-Order Simulator ***
Warmup Instructions: 25000000
Simulation Instructions: 25000000
Number of CPUs: 1
Page size: 4096

Off-chip DRAM Size: 4 GiB Channels: 1 Width: 64-bit Data Race: 800 MT/s
Heartbeat CPU 0 instructions: 10000002 cycles: 2500121 heartbeat IPC: 4 cumulative IPC: 4 (Simulation time: 00 hr 00 min 38 sec)
Heartbeat CPU 0 instructions: 20000002 cycles: 5000121 heartbeat IPC: 4 cumulative IPC: 4 (Simulation time: 00 hr 01 min 19 sec)
Warmup finished CPU 0 instructions: 25000002 cycles: 6250122 cumulative IPC: 4 (Simulation time: 00 hr 01 min 40 sec)
Warmup complete CPU 0 instructions: 25000002 cycles: 6250122 cumulative IPC: 4 (Simulation time: 00 hr 01 min 40 sec)
Heartbeat CPU 0 instructions: 30000001 cycles: 28700950 heartbeat IPC: 0.4219 cumulative IPC: 0.2227 (Simulation time: 00 hr 05 min 12 sec)
Heartbeat CPU 0 instructions: 40000002 cycles: 73715894 heartbeat IPC: 0.2221 cumulative IPC: 0.2223 (Simulation time: 00 hr 12 min 29 sec)
Heartbeat CPU 0 instructions: 50000000 cycles: 118730714 heartbeat IPC: 0.2221 cumulative IPC: 0.2223 (Simulation time: 00 hr 19 min 47 sec)
Simulation finished CPU 0 instructions: 25000002 cycles: 112480594 cumulative IPC: 0.2223 (Simulation time: 00 hr 19 min 47 sec)
Simulation complete CPU 0 instructions: 25000002 cycles: 112480594 cumulative IPC: 0.2223 (Simulation time: 00 hr 19 min 47 sec)

ChampSim completed all CPUs

=== Simulation ===
CPU 0 runs ./traces/GemsFDTD_712B.trace.xz
Region of Interest Statistics

CPU 0 cumulative IPC: 0.2223 instructions: 25000002 cycles: 112480594
CPU 0 Branch Prediction Accuracy: 97.29% MPKI: 0.5323 Average ROB Occupancy at Mispredict: 310.5
Branch type MPKI
BRANCH_DIRECT_JUMP: 0
BRANCH_INDIRECT: 0
BRANCH_CONDITIONAL: 0.532
BRANCH_DIRECT_CALL: 0
BRANCH_INDIRECT_CALL: 0
BRANCH_RETURN: 0

LLC TOTAL        ACCESS:    1380048 HIT:     377710 MISS:    1002338
LLC LOAD         ACCESS:     330604 HIT:       7968 MISS:     322636
LLC RFO          ACCESS:          0 HIT:          0 MISS:          0
LLC PREFETCH     ACCESS:     689578 HIT:      10576 MISS:     679002
LLC WRITE        ACCESS:     358737 HIT:     358324 MISS:        413
LLC TRANSLATION  ACCESS:       1129 HIT:        842 MISS:        287
LLC PREFETCH REQUESTED:          0 ISSUED:          0 USEFUL:          0 USELESS:          0
LLC AVERAGE MISS LATENCY: 1673 cycles
cpu0_DTLB TOTAL        ACCESS:    7071087 HIT:    7023619 MISS:      47468
cpu0_DTLB LOAD         ACCESS:    7071087 HIT:    7023619 MISS:      47468
cpu0_DTLB RFO          ACCESS:          0 HIT:          0 MISS:          0
cpu0_DTLB PREFETCH     ACCESS:          0 HIT:          0 MISS:          0
cpu0_DTLB WRITE        ACCESS:          0 HIT:          0 MISS:          0
cpu0_DTLB TRANSLATION  ACCESS:          0 HIT:          0 MISS:          0
cpu0_DTLB PREFETCH REQUESTED:          0 ISSUED:          0 USEFUL:          0 USELESS:          0
cpu0_DTLB AVERAGE MISS LATENCY: 52.08 cycles
cpu0_ITLB TOTAL        ACCESS:          0 HIT:          0 MISS:          0
cpu0_ITLB LOAD         ACCESS:          0 HIT:          0 MISS:          0
cpu0_ITLB RFO          ACCESS:          0 HIT:          0 MISS:          0
cpu0_ITLB PREFETCH     ACCESS:          0 HIT:          0 MISS:          0
cpu0_ITLB WRITE        ACCESS:          0 HIT:          0 MISS:          0
cpu0_ITLB TRANSLATION  ACCESS:          0 HIT:          0 MISS:          0
cpu0_ITLB PREFETCH REQUESTED:          0 ISSUED:          0 USEFUL:          0 USELESS:          0
cpu0_ITLB AVERAGE MISS LATENCY: -nan cycles
cpu0_L1D TOTAL        ACCESS:   11509419 HIT:    6023399 MISS:    5486020
cpu0_L1D LOAD         ACCESS:    6497507 HIT:    2821189 MISS:    3676318
cpu0_L1D RFO          ACCESS:          0 HIT:          0 MISS:          0
cpu0_L1D PREFETCH     ACCESS:    2611369 HIT:     813939 MISS:    1797430
cpu0_L1D WRITE        ACCESS:    2388201 HIT:    2388183 MISS:         18
cpu0_L1D TRANSLATION  ACCESS:      12342 HIT:         88 MISS:      12254
cpu0_L1D PREFETCH REQUESTED:   15954849 ISSUED:    2611369 USEFUL:     608135 USELESS:      40846
cpu0_L1D AVERAGE MISS LATENCY: 152 cycles
cpu0_L1I TOTAL        ACCESS:          0 HIT:          0 MISS:          0
cpu0_L1I LOAD         ACCESS:          0 HIT:          0 MISS:          0
cpu0_L1I RFO          ACCESS:          0 HIT:          0 MISS:          0
cpu0_L1I PREFETCH     ACCESS:          0 HIT:          0 MISS:          0
cpu0_L1I WRITE        ACCESS:          0 HIT:          0 MISS:          0
cpu0_L1I TRANSLATION  ACCESS:          0 HIT:          0 MISS:          0
cpu0_L1I PREFETCH REQUESTED:          0 ISSUED:          0 USEFUL:          0 USELESS:          0
cpu0_L1I AVERAGE MISS LATENCY: -nan cycles
cpu0_L2C TOTAL        ACCESS:    1474155 HIT:     429046 MISS:    1045109
cpu0_L2C LOAD         ACCESS:     353321 HIT:      18675 MISS:     334646
cpu0_L2C RFO          ACCESS:          8 HIT:          8 MISS:          0
cpu0_L2C PREFETCH     ACCESS:     748556 HIT:      39293 MISS:     709263
cpu0_L2C WRITE        ACCESS:     360016 HIT:     359945 MISS:         71
cpu0_L2C TRANSLATION  ACCESS:      12254 HIT:      11125 MISS:       1129
cpu0_L2C PREFETCH REQUESTED:      99569 ISSUED:      99569 USEFUL:      48742 USELESS:      10499
cpu0_L2C AVERAGE MISS LATENCY: 1579 cycles
cpu0_STLB TOTAL        ACCESS:      16424 HIT:       4111 MISS:      12313
cpu0_STLB LOAD         ACCESS:      16424 HIT:       4111 MISS:      12313
cpu0_STLB RFO          ACCESS:          0 HIT:          0 MISS:          0
cpu0_STLB PREFETCH     ACCESS:          0 HIT:          0 MISS:          0
cpu0_STLB WRITE        ACCESS:          0 HIT:          0 MISS:          0
cpu0_STLB TRANSLATION  ACCESS:          0 HIT:          0 MISS:          0
cpu0_STLB PREFETCH REQUESTED:          0 ISSUED:          0 USEFUL:          0 USELESS:          0
cpu0_STLB AVERAGE MISS LATENCY: 322 cycles

DRAM Statistics

Channel 0 RQ ROW_BUFFER_HIT:     555190
  ROW_BUFFER_MISS:     435087
 AVG DBUS CONGESTED CYCLE: 3.883
WQ ROW_BUFFER_HIT: Channel 0 
  ROW_BUFFER_MISS:      39448
  FULL:     319094
