WARNING: physical memory size is smaller than virtual memory size.

*** ChampSim Multicore Out-of-Order Simulator ***
Warmup Instructions: 25000000
Simulation Instructions: 25000000
Number of CPUs: 1
Page size: 4096

Off-chip DRAM Size: 4 GiB Channels: 1 Width: 64-bit Data Race: 800 MT/s
Heartbeat CPU 0 instructions: 10000002 cycles: 2508662 heartbeat IPC: 3.986 cumulative IPC: 3.986 (Simulation time: 00 hr 00 min 32 sec)
Heartbeat CPU 0 instructions: 20000002 cycles: 5008662 heartbeat IPC: 4 cumulative IPC: 3.993 (Simulation time: 00 hr 01 min 18 sec)
Warmup finished CPU 0 instructions: 25000002 cycles: 6258663 cumulative IPC: 3.994 (Simulation time: 00 hr 01 min 40 sec)
Warmup complete CPU 0 instructions: 25000002 cycles: 6258663 cumulative IPC: 3.994 (Simulation time: 00 hr 01 min 40 sec)
Heartbeat CPU 0 instructions: 30000001 cycles: 10148692 heartbeat IPC: 1.946 cumulative IPC: 1.285 (Simulation time: 00 hr 02 min 29 sec)
Heartbeat CPU 0 instructions: 40000000 cycles: 15983592 heartbeat IPC: 1.714 cumulative IPC: 1.542 (Simulation time: 00 hr 03 min 49 sec)
Heartbeat CPU 0 instructions: 50000000 cycles: 42684434 heartbeat IPC: 0.3745 cumulative IPC: 0.6863 (Simulation time: 00 hr 08 min 21 sec)
Simulation finished CPU 0 instructions: 25000002 cycles: 36425773 cumulative IPC: 0.6863 (Simulation time: 00 hr 08 min 21 sec)
Simulation complete CPU 0 instructions: 25000002 cycles: 36425773 cumulative IPC: 0.6863 (Simulation time: 00 hr 08 min 21 sec)

ChampSim completed all CPUs

=== Simulation ===
CPU 0 runs ./traces/GemsFDTD_716B.trace.xz
Region of Interest Statistics

CPU 0 cumulative IPC: 0.6863 instructions: 25000002 cycles: 36425773
CPU 0 Branch Prediction Accuracy: 99.45% MPKI: 0.03192 Average ROB Occupancy at Mispredict: 350.3
Branch type MPKI
BRANCH_DIRECT_JUMP: 0
BRANCH_INDIRECT: 0
BRANCH_CONDITIONAL: 0.0319
BRANCH_DIRECT_CALL: 0
BRANCH_INDIRECT_CALL: 0
BRANCH_RETURN: 0

LLC TOTAL        ACCESS:    1747949 HIT:    1215464 MISS:     532485
LLC LOAD         ACCESS:     825829 HIT:     599963 MISS:     225866
LLC RFO          ACCESS:          0 HIT:          0 MISS:          0
LLC PREFETCH     ACCESS:     689901 HIT:     428665 MISS:     261236
LLC WRITE        ACCESS:     174269 HIT:     174211 MISS:         58
LLC TRANSLATION  ACCESS:      57950 HIT:      12625 MISS:      45325
LLC PREFETCH REQUESTED:          0 ISSUED:          0 USEFUL:          0 USELESS:          0
LLC AVERAGE MISS LATENCY: 664.3 cycles
cpu0_DTLB TOTAL        ACCESS:    6400258 HIT:    5680345 MISS:     719913
cpu0_DTLB LOAD         ACCESS:    6400258 HIT:    5680345 MISS:     719913
cpu0_DTLB RFO          ACCESS:          0 HIT:          0 MISS:          0
cpu0_DTLB PREFETCH     ACCESS:          0 HIT:          0 MISS:          0
cpu0_DTLB WRITE        ACCESS:          0 HIT:          0 MISS:          0
cpu0_DTLB TRANSLATION  ACCESS:          0 HIT:          0 MISS:          0
cpu0_DTLB PREFETCH REQUESTED:          0 ISSUED:          0 USEFUL:          0 USELESS:          0
cpu0_DTLB AVERAGE MISS LATENCY: 56.82 cycles
cpu0_ITLB TOTAL        ACCESS:        141 HIT:        133 MISS:          8
cpu0_ITLB LOAD         ACCESS:        141 HIT:        133 MISS:          8
cpu0_ITLB RFO          ACCESS:          0 HIT:          0 MISS:          0
cpu0_ITLB PREFETCH     ACCESS:          0 HIT:          0 MISS:          0
cpu0_ITLB WRITE        ACCESS:          0 HIT:          0 MISS:          0
cpu0_ITLB TRANSLATION  ACCESS:          0 HIT:          0 MISS:          0
cpu0_ITLB PREFETCH REQUESTED:          0 ISSUED:          0 USEFUL:          0 USELESS:          0
cpu0_ITLB AVERAGE MISS LATENCY: 133.4 cycles
cpu0_L1D TOTAL        ACCESS:   10425900 HIT:    7191694 MISS:    3234206
cpu0_L1D LOAD         ACCESS:    5103310 HIT:    3223203 MISS:    1880107
cpu0_L1D RFO          ACCESS:          0 HIT:          0 MISS:          0
cpu0_L1D PREFETCH     ACCESS:    2345726 HIT:    1109336 MISS:    1236390
cpu0_L1D WRITE        ACCESS:    2883352 HIT:    2854161 MISS:      29191
cpu0_L1D TRANSLATION  ACCESS:      93512 HIT:       4994 MISS:      88518
cpu0_L1D PREFETCH REQUESTED:    8145813 ISSUED:    2345726 USEFUL:     133338 USELESS:     708981
cpu0_L1D AVERAGE MISS LATENCY: 127 cycles
cpu0_L1I TOTAL        ACCESS:        177 HIT:         82 MISS:         95
cpu0_L1I LOAD         ACCESS:        177 HIT:         82 MISS:         95
cpu0_L1I RFO          ACCESS:          0 HIT:          0 MISS:          0
cpu0_L1I PREFETCH     ACCESS:          0 HIT:          0 MISS:          0
cpu0_L1I WRITE        ACCESS:          0 HIT:          0 MISS:          0
cpu0_L1I TRANSLATION  ACCESS:          0 HIT:          0 MISS:          0
cpu0_L1I PREFETCH REQUESTED:          0 ISSUED:          0 USEFUL:          0 USELESS:          0
cpu0_L1I AVERAGE MISS LATENCY: 354.6 cycles
cpu0_L2C TOTAL        ACCESS:    3449852 HIT:    1874089 MISS:    1575763
cpu0_L2C LOAD         ACCESS:    1870973 HIT:    1044824 MISS:     826149
cpu0_L2C RFO          ACCESS:      24834 HIT:      24834 MISS:          0
cpu0_L2C PREFETCH     ACCESS:    1158024 HIT:     466403 MISS:     691621
cpu0_L2C WRITE        ACCESS:     307959 HIT:     307916 MISS:         43
cpu0_L2C TRANSLATION  ACCESS:      88062 HIT:      30112 MISS:      57950
cpu0_L2C PREFETCH REQUESTED:     315711 ISSUED:     315687 USEFUL:      47489 USELESS:      65500
cpu0_L2C AVERAGE MISS LATENCY: 243.7 cycles
cpu0_STLB TOTAL        ACCESS:     703088 HIT:     634881 MISS:      68207
cpu0_STLB LOAD         ACCESS:     703088 HIT:     634881 MISS:      68207
cpu0_STLB RFO          ACCESS:          0 HIT:          0 MISS:          0
cpu0_STLB PREFETCH     ACCESS:          0 HIT:          0 MISS:          0
cpu0_STLB WRITE        ACCESS:          0 HIT:          0 MISS:          0
cpu0_STLB TRANSLATION  ACCESS:          0 HIT:          0 MISS:          0
cpu0_STLB PREFETCH REQUESTED:          0 ISSUED:          0 USEFUL:          0 USELESS:          0
cpu0_STLB AVERAGE MISS LATENCY: 549.5 cycles

DRAM Statistics

Channel 0 RQ ROW_BUFFER_HIT:     176425
  ROW_BUFFER_MISS:     355930
 AVG DBUS CONGESTED CYCLE: 3.843
WQ ROW_BUFFER_HIT: Channel 0 
  ROW_BUFFER_MISS:         81
  FULL:        598
