WARNING: physical memory size is smaller than virtual memory size.

*** ChampSim Multicore Out-of-Order Simulator ***
Warmup Instructions: 25000000
Simulation Instructions: 25000000
Number of CPUs: 1
Page size: 4096

Off-chip DRAM Size: 4 GiB Channels: 1 Width: 64-bit Data Race: 800 MT/s
Heartbeat CPU 0 instructions: 10000003 cycles: 2500113 heartbeat IPC: 4 cumulative IPC: 4 (Simulation time: 00 hr 00 min 36 sec)
Heartbeat CPU 0 instructions: 20000000 cycles: 5001250 heartbeat IPC: 3.998 cumulative IPC: 3.999 (Simulation time: 00 hr 01 min 16 sec)
Warmup finished CPU 0 instructions: 25000002 cycles: 6251541 cumulative IPC: 3.999 (Simulation time: 00 hr 01 min 36 sec)
Warmup complete CPU 0 instructions: 25000002 cycles: 6251541 cumulative IPC: 3.999 (Simulation time: 00 hr 01 min 36 sec)
Heartbeat CPU 0 instructions: 30000002 cycles: 8829181 heartbeat IPC: 2.612 cumulative IPC: 1.94 (Simulation time: 00 hr 02 min 11 sec)
Heartbeat CPU 0 instructions: 40000003 cycles: 15353523 heartbeat IPC: 1.533 cumulative IPC: 1.648 (Simulation time: 00 hr 03 min 33 sec)
Heartbeat CPU 0 instructions: 50000001 cycles: 22398675 heartbeat IPC: 1.419 cumulative IPC: 1.548 (Simulation time: 00 hr 05 min 04 sec)
Simulation finished CPU 0 instructions: 25000003 cycles: 16147136 cumulative IPC: 1.548 (Simulation time: 00 hr 05 min 04 sec)
Simulation complete CPU 0 instructions: 25000003 cycles: 16147136 cumulative IPC: 1.548 (Simulation time: 00 hr 05 min 04 sec)

ChampSim completed all CPUs

=== Simulation ===
CPU 0 runs ./traces/hmmer_397B.trace.xz
Region of Interest Statistics

CPU 0 cumulative IPC: 1.548 instructions: 25000003 cycles: 16147136
CPU 0 Branch Prediction Accuracy: 99.17% MPKI: 0.3152 Average ROB Occupancy at Mispredict: 232.2
Branch type MPKI
BRANCH_DIRECT_JUMP: 8e-05
BRANCH_INDIRECT: 0.0002
BRANCH_CONDITIONAL: 0.315
BRANCH_DIRECT_CALL: 0
BRANCH_INDIRECT_CALL: 0
BRANCH_RETURN: 0.00012

LLC TOTAL        ACCESS:     157742 HIT:      85659 MISS:      72083
LLC LOAD         ACCESS:       1779 HIT:       1271 MISS:        508
LLC RFO          ACCESS:      75233 HIT:       6320 MISS:      68913
LLC PREFETCH     ACCESS:       7287 HIT:       4824 MISS:       2463
LLC WRITE        ACCESS:      73434 HIT:      73239 MISS:        195
LLC TRANSLATION  ACCESS:          9 HIT:          5 MISS:          4
LLC PREFETCH REQUESTED:          0 ISSUED:          0 USEFUL:          0 USELESS:          0
LLC AVERAGE MISS LATENCY: 2901 cycles
cpu0_DTLB TOTAL        ACCESS:    5402480 HIT:    5398609 MISS:       3871
cpu0_DTLB LOAD         ACCESS:    5402480 HIT:    5398609 MISS:       3871
cpu0_DTLB RFO          ACCESS:          0 HIT:          0 MISS:          0
cpu0_DTLB PREFETCH     ACCESS:          0 HIT:          0 MISS:          0
cpu0_DTLB WRITE        ACCESS:          0 HIT:          0 MISS:          0
cpu0_DTLB TRANSLATION  ACCESS:          0 HIT:          0 MISS:          0
cpu0_DTLB PREFETCH REQUESTED:          0 ISSUED:          0 USEFUL:          0 USELESS:          0
cpu0_DTLB AVERAGE MISS LATENCY: 13.29 cycles
cpu0_ITLB TOTAL        ACCESS:        659 HIT:        645 MISS:         14
cpu0_ITLB LOAD         ACCESS:        659 HIT:        645 MISS:         14
cpu0_ITLB RFO          ACCESS:          0 HIT:          0 MISS:          0
cpu0_ITLB PREFETCH     ACCESS:          0 HIT:          0 MISS:          0
cpu0_ITLB WRITE        ACCESS:          0 HIT:          0 MISS:          0
cpu0_ITLB TRANSLATION  ACCESS:          0 HIT:          0 MISS:          0
cpu0_ITLB PREFETCH REQUESTED:          0 ISSUED:          0 USEFUL:          0 USELESS:          0
cpu0_ITLB AVERAGE MISS LATENCY: 1.214 cycles
cpu0_L1D TOTAL        ACCESS:    7856393 HIT:    4778042 MISS:    3078351
cpu0_L1D LOAD         ACCESS:    4151194 HIT:    4076334 MISS:      74860
cpu0_L1D RFO          ACCESS:          0 HIT:          0 MISS:          0
cpu0_L1D PREFETCH     ACCESS:     336115 HIT:     300105 MISS:      36010
cpu0_L1D WRITE        ACCESS:    3368829 HIT:     401597 MISS:    2967232
cpu0_L1D TRANSLATION  ACCESS:        255 HIT:          6 MISS:        249
cpu0_L1D PREFETCH REQUESTED:    6154510 ISSUED:     336115 USEFUL:       5964 USELESS:       3008
cpu0_L1D AVERAGE MISS LATENCY: 55.7 cycles
cpu0_L1I TOTAL        ACCESS:        738 HIT:        712 MISS:         26
cpu0_L1I LOAD         ACCESS:        738 HIT:        712 MISS:         26
cpu0_L1I RFO          ACCESS:          0 HIT:          0 MISS:          0
cpu0_L1I PREFETCH     ACCESS:          0 HIT:          0 MISS:          0
cpu0_L1I WRITE        ACCESS:          0 HIT:          0 MISS:          0
cpu0_L1I TRANSLATION  ACCESS:          0 HIT:          0 MISS:          0
cpu0_L1I PREFETCH REQUESTED:          0 ISSUED:          0 USEFUL:          0 USELESS:          0
cpu0_L1I AVERAGE MISS LATENCY: 746.7 cycles
cpu0_L2C TOTAL        ACCESS:     302641 HIT:     217802 MISS:      84839
cpu0_L2C LOAD         ACCESS:      51047 HIT:      49140 MISS:       1907
cpu0_L2C RFO          ACCESS:      75257 HIT:         24 MISS:      75233
cpu0_L2C PREFETCH     ACCESS:     102648 HIT:      94962 MISS:       7686
cpu0_L2C WRITE        ACCESS:      73440 HIT:      73436 MISS:          4
cpu0_L2C TRANSLATION  ACCESS:        249 HIT:        240 MISS:          9
cpu0_L2C PREFETCH REQUESTED:      93678 ISSUED:      93678 USEFUL:       3428 USELESS:        217
cpu0_L2C AVERAGE MISS LATENCY: 2483 cycles
cpu0_STLB TOTAL        ACCESS:       1660 HIT:       1405 MISS:        255
cpu0_STLB LOAD         ACCESS:       1660 HIT:       1405 MISS:        255
cpu0_STLB RFO          ACCESS:          0 HIT:          0 MISS:          0
cpu0_STLB PREFETCH     ACCESS:          0 HIT:          0 MISS:          0
cpu0_STLB WRITE        ACCESS:          0 HIT:          0 MISS:          0
cpu0_STLB TRANSLATION  ACCESS:          0 HIT:          0 MISS:          0
cpu0_STLB PREFETCH REQUESTED:          0 ISSUED:          0 USEFUL:          0 USELESS:          0
cpu0_STLB AVERAGE MISS LATENCY: 271.2 cycles

DRAM Statistics

Channel 0 RQ ROW_BUFFER_HIT:      38604
  ROW_BUFFER_MISS:      33229
 AVG DBUS CONGESTED CYCLE: 3.951
WQ ROW_BUFFER_HIT: Channel 0 
  ROW_BUFFER_MISS:      10551
  FULL:      57528
