WARNING: physical memory size is smaller than virtual memory size.

*** ChampSim Multicore Out-of-Order Simulator ***
Warmup Instructions: 25000000
Simulation Instructions: 25000000
Number of CPUs: 1
Page size: 4096

Off-chip DRAM Size: 4 GiB Channels: 1 Width: 64-bit Data Race: 800 MT/s
Heartbeat CPU 0 instructions: 10000002 cycles: 2511859 heartbeat IPC: 3.981 cumulative IPC: 3.981 (Simulation time: 00 hr 00 min 33 sec)
Heartbeat CPU 0 instructions: 20000001 cycles: 5023692 heartbeat IPC: 3.981 cumulative IPC: 3.981 (Simulation time: 00 hr 01 min 09 sec)
Warmup finished CPU 0 instructions: 25000000 cycles: 6673542 cumulative IPC: 3.746 (Simulation time: 00 hr 01 min 34 sec)
Warmup complete CPU 0 instructions: 25000000 cycles: 6673542 cumulative IPC: 3.746 (Simulation time: 00 hr 01 min 34 sec)
Heartbeat CPU 0 instructions: 30000001 cycles: 33217835 heartbeat IPC: 0.3547 cumulative IPC: 0.1884 (Simulation time: 00 hr 05 min 14 sec)
Heartbeat CPU 0 instructions: 40000001 cycles: 79854483 heartbeat IPC: 0.2144 cumulative IPC: 0.205 (Simulation time: 00 hr 11 min 41 sec)
Heartbeat CPU 0 instructions: 50000001 cycles: 126326377 heartbeat IPC: 0.2152 cumulative IPC: 0.2089 (Simulation time: 00 hr 18 min 09 sec)
Simulation finished CPU 0 instructions: 25000001 cycles: 119652836 cumulative IPC: 0.2089 (Simulation time: 00 hr 18 min 09 sec)
Simulation complete CPU 0 instructions: 25000001 cycles: 119652836 cumulative IPC: 0.2089 (Simulation time: 00 hr 18 min 09 sec)

ChampSim completed all CPUs

=== Simulation ===
CPU 0 runs ./traces/lbm_564B.trace.xz
Region of Interest Statistics

CPU 0 cumulative IPC: 0.2089 instructions: 25000001 cycles: 119652836
CPU 0 Branch Prediction Accuracy: 99.23% MPKI: 0.094 Average ROB Occupancy at Mispredict: 252
Branch type MPKI
BRANCH_DIRECT_JUMP: 0
BRANCH_INDIRECT: 0
BRANCH_CONDITIONAL: 0.094
BRANCH_DIRECT_CALL: 0
BRANCH_INDIRECT_CALL: 0
BRANCH_RETURN: 0

LLC TOTAL        ACCESS:    1389409 HIT:     623396 MISS:     766013
LLC LOAD         ACCESS:      92544 HIT:       1316 MISS:      91228
LLC RFO          ACCESS:     595157 HIT:      24532 MISS:     570625
LLC PREFETCH     ACCESS:     103485 HIT:       1167 MISS:     102318
LLC WRITE        ACCESS:     597457 HIT:     595678 MISS:       1779
LLC TRANSLATION  ACCESS:        766 HIT:        703 MISS:         63
LLC PREFETCH REQUESTED:          0 ISSUED:          0 USEFUL:          0 USELESS:          0
LLC AVERAGE MISS LATENCY: 2195 cycles
cpu0_DTLB TOTAL        ACCESS:    4112261 HIT:    4096355 MISS:      15906
cpu0_DTLB LOAD         ACCESS:    4112261 HIT:    4096355 MISS:      15906
cpu0_DTLB RFO          ACCESS:          0 HIT:          0 MISS:          0
cpu0_DTLB PREFETCH     ACCESS:          0 HIT:          0 MISS:          0
cpu0_DTLB WRITE        ACCESS:          0 HIT:          0 MISS:          0
cpu0_DTLB TRANSLATION  ACCESS:          0 HIT:          0 MISS:          0
cpu0_DTLB PREFETCH REQUESTED:          0 ISSUED:          0 USEFUL:          0 USELESS:          0
cpu0_DTLB AVERAGE MISS LATENCY: 242.6 cycles
cpu0_ITLB TOTAL        ACCESS:          0 HIT:          0 MISS:          0
cpu0_ITLB LOAD         ACCESS:          0 HIT:          0 MISS:          0
cpu0_ITLB RFO          ACCESS:          0 HIT:          0 MISS:          0
cpu0_ITLB PREFETCH     ACCESS:          0 HIT:          0 MISS:          0
cpu0_ITLB WRITE        ACCESS:          0 HIT:          0 MISS:          0
cpu0_ITLB TRANSLATION  ACCESS:          0 HIT:          0 MISS:          0
cpu0_ITLB PREFETCH REQUESTED:          0 ISSUED:          0 USEFUL:          0 USELESS:          0
cpu0_ITLB AVERAGE MISS LATENCY: -nan cycles
cpu0_L1D TOTAL        ACCESS:    7249143 HIT:    3946546 MISS:    3302597
cpu0_L1D LOAD         ACCESS:    2181573 HIT:    1381739 MISS:     799834
cpu0_L1D RFO          ACCESS:          0 HIT:          0 MISS:          0
cpu0_L1D PREFETCH     ACCESS:    2446967 HIT:    1050103 MISS:    1396864
cpu0_L1D WRITE        ACCESS:    2608656 HIT:    1513737 MISS:    1094919
cpu0_L1D TRANSLATION  ACCESS:      11947 HIT:        967 MISS:      10980
cpu0_L1D PREFETCH REQUESTED:    9961270 ISSUED:    2446964 USEFUL:      75056 USELESS:       1828
cpu0_L1D AVERAGE MISS LATENCY: 428.7 cycles
cpu0_L1I TOTAL        ACCESS:          0 HIT:          0 MISS:          0
cpu0_L1I LOAD         ACCESS:          0 HIT:          0 MISS:          0
cpu0_L1I RFO          ACCESS:          0 HIT:          0 MISS:          0
cpu0_L1I PREFETCH     ACCESS:          0 HIT:          0 MISS:          0
cpu0_L1I WRITE        ACCESS:          0 HIT:          0 MISS:          0
cpu0_L1I TRANSLATION  ACCESS:          0 HIT:          0 MISS:          0
cpu0_L1I PREFETCH REQUESTED:          0 ISSUED:          0 USEFUL:          0 USELESS:          0
cpu0_L1I AVERAGE MISS LATENCY: -nan cycles
cpu0_L2C TOTAL        ACCESS:    2417564 HIT:    1625024 MISS:     792540
cpu0_L2C LOAD         ACCESS:     115823 HIT:      23223 MISS:      92600
cpu0_L2C RFO          ACCESS:    1075522 HIT:     480365 MISS:     595157
cpu0_L2C PREFETCH     ACCESS:     139675 HIT:      35658 MISS:     104017
cpu0_L2C WRITE        ACCESS:    1075564 HIT:    1075564 MISS:          0
cpu0_L2C TRANSLATION  ACCESS:      10980 HIT:      10214 MISS:        766
cpu0_L2C PREFETCH REQUESTED:      62790 ISSUED:      62790 USEFUL:      24398 USELESS:         31
cpu0_L2C AVERAGE MISS LATENCY: 2135 cycles
cpu0_STLB TOTAL        ACCESS:      11936 HIT:          0 MISS:      11936
cpu0_STLB LOAD         ACCESS:      11936 HIT:          0 MISS:      11936
cpu0_STLB RFO          ACCESS:          0 HIT:          0 MISS:          0
cpu0_STLB PREFETCH     ACCESS:          0 HIT:          0 MISS:          0
cpu0_STLB WRITE        ACCESS:          0 HIT:          0 MISS:          0
cpu0_STLB TRANSLATION  ACCESS:          0 HIT:          0 MISS:          0
cpu0_STLB PREFETCH REQUESTED:          0 ISSUED:          0 USEFUL:          0 USELESS:          0
cpu0_STLB AVERAGE MISS LATENCY: 335.9 cycles

DRAM Statistics

Channel 0 RQ ROW_BUFFER_HIT:      39065
  ROW_BUFFER_MISS:     724264
 AVG DBUS CONGESTED CYCLE: 3.982
WQ ROW_BUFFER_HIT: Channel 0 
  ROW_BUFFER_MISS:      40258
  FULL:     540103
