WARNING: physical memory size is smaller than virtual memory size.

*** ChampSim Multicore Out-of-Order Simulator ***
Warmup Instructions: 25000000
Simulation Instructions: 25000000
Number of CPUs: 1
Page size: 4096

Off-chip DRAM Size: 4 GiB Channels: 1 Width: 64-bit Data Race: 800 MT/s
Heartbeat CPU 0 instructions: 10000002 cycles: 2656989 heartbeat IPC: 3.764 cumulative IPC: 3.764 (Simulation time: 00 hr 00 min 46 sec)
Heartbeat CPU 0 instructions: 20000003 cycles: 5177664 heartbeat IPC: 3.967 cumulative IPC: 3.863 (Simulation time: 00 hr 01 min 30 sec)
Warmup finished CPU 0 instructions: 25000000 cycles: 6427670 cumulative IPC: 3.889 (Simulation time: 00 hr 01 min 53 sec)
Warmup complete CPU 0 instructions: 25000000 cycles: 6427670 cumulative IPC: 3.889 (Simulation time: 00 hr 01 min 53 sec)
Heartbeat CPU 0 instructions: 30000003 cycles: 36894485 heartbeat IPC: 0.3153 cumulative IPC: 0.1641 (Simulation time: 00 hr 06 min 39 sec)
Heartbeat CPU 0 instructions: 40000000 cycles: 46622564 heartbeat IPC: 1.028 cumulative IPC: 0.3732 (Simulation time: 00 hr 08 min 38 sec)
Heartbeat CPU 0 instructions: 50000000 cycles: 56520783 heartbeat IPC: 1.01 cumulative IPC: 0.4991 (Simulation time: 00 hr 10 min 36 sec)
Simulation finished CPU 0 instructions: 25000000 cycles: 50093114 cumulative IPC: 0.4991 (Simulation time: 00 hr 10 min 36 sec)
Simulation complete CPU 0 instructions: 25000000 cycles: 50093114 cumulative IPC: 0.4991 (Simulation time: 00 hr 10 min 36 sec)

ChampSim completed all CPUs

=== Simulation ===
CPU 0 runs ./traces/leslie3d_94B.trace.xz
Region of Interest Statistics

CPU 0 cumulative IPC: 0.4991 instructions: 25000000 cycles: 50093114
CPU 0 Branch Prediction Accuracy: 98.16% MPKI: 0.7514 Average ROB Occupancy at Mispredict: 333.4
Branch type MPKI
BRANCH_DIRECT_JUMP: 0.00032
BRANCH_INDIRECT: 0
BRANCH_CONDITIONAL: 0.751
BRANCH_DIRECT_CALL: 4e-05
BRANCH_INDIRECT_CALL: 0
BRANCH_RETURN: 8e-05

LLC TOTAL        ACCESS:    1053628 HIT:     461077 MISS:     592551
LLC LOAD         ACCESS:     270737 HIT:     107398 MISS:     163339
LLC RFO          ACCESS:      89057 HIT:      33162 MISS:      55895
LLC PREFETCH     ACCESS:     525789 HIT:     153605 MISS:     372184
LLC WRITE        ACCESS:     167129 HIT:     166333 MISS:        796
LLC TRANSLATION  ACCESS:        916 HIT:        579 MISS:        337
LLC PREFETCH REQUESTED:          0 ISSUED:          0 USEFUL:          0 USELESS:          0
LLC AVERAGE MISS LATENCY: 1231 cycles
cpu0_DTLB TOTAL        ACCESS:    7032205 HIT:    6961355 MISS:      70850
cpu0_DTLB LOAD         ACCESS:    7032205 HIT:    6961355 MISS:      70850
cpu0_DTLB RFO          ACCESS:          0 HIT:          0 MISS:          0
cpu0_DTLB PREFETCH     ACCESS:          0 HIT:          0 MISS:          0
cpu0_DTLB WRITE        ACCESS:          0 HIT:          0 MISS:          0
cpu0_DTLB TRANSLATION  ACCESS:          0 HIT:          0 MISS:          0
cpu0_DTLB PREFETCH REQUESTED:          0 ISSUED:          0 USEFUL:          0 USELESS:          0
cpu0_DTLB AVERAGE MISS LATENCY: 24.85 cycles
cpu0_ITLB TOTAL        ACCESS:     174244 HIT:     174227 MISS:         17
cpu0_ITLB LOAD         ACCESS:     174244 HIT:     174227 MISS:         17
cpu0_ITLB RFO          ACCESS:          0 HIT:          0 MISS:          0
cpu0_ITLB PREFETCH     ACCESS:          0 HIT:          0 MISS:          0
cpu0_ITLB WRITE        ACCESS:          0 HIT:          0 MISS:          0
cpu0_ITLB TRANSLATION  ACCESS:          0 HIT:          0 MISS:          0
cpu0_ITLB PREFETCH REQUESTED:          0 ISSUED:          0 USEFUL:          0 USELESS:          0
cpu0_ITLB AVERAGE MISS LATENCY: 142.8 cycles
cpu0_L1D TOTAL        ACCESS:   11548631 HIT:    7868908 MISS:    3679723
cpu0_L1D LOAD         ACCESS:    6237635 HIT:    4491274 MISS:    1746361
cpu0_L1D RFO          ACCESS:          0 HIT:          0 MISS:          0
cpu0_L1D PREFETCH     ACCESS:    2178651 HIT:    1250563 MISS:     928088
cpu0_L1D WRITE        ACCESS:    3124044 HIT:    2126193 MISS:     997851
cpu0_L1D TRANSLATION  ACCESS:       8301 HIT:        878 MISS:       7423
cpu0_L1D PREFETCH REQUESTED:   18093559 ISSUED:    2178651 USEFUL:     366474 USELESS:      38335
cpu0_L1D AVERAGE MISS LATENCY: 107.2 cycles
cpu0_L1I TOTAL        ACCESS:     232277 HIT:     231914 MISS:        363
cpu0_L1I LOAD         ACCESS:     232277 HIT:     231914 MISS:        363
cpu0_L1I RFO          ACCESS:          0 HIT:          0 MISS:          0
cpu0_L1I PREFETCH     ACCESS:          0 HIT:          0 MISS:          0
cpu0_L1I WRITE        ACCESS:          0 HIT:          0 MISS:          0
cpu0_L1I TRANSLATION  ACCESS:          0 HIT:          0 MISS:          0
cpu0_L1I PREFETCH REQUESTED:          0 ISSUED:          0 USEFUL:          0 USELESS:          0
cpu0_L1I AVERAGE MISS LATENCY: 421.8 cycles
cpu0_L2C TOTAL        ACCESS:    2185210 HIT:    1138194 MISS:    1047016
cpu0_L2C LOAD         ACCESS:     572690 HIT:     267884 MISS:     304806
cpu0_L2C RFO          ACCESS:     225353 HIT:     136296 MISS:      89057
cpu0_L2C PREFETCH     ACCESS:    1043912 HIT:     392457 MISS:     651455
cpu0_L2C WRITE        ACCESS:     335857 HIT:     335075 MISS:        782
cpu0_L2C TRANSLATION  ACCESS:       7398 HIT:       6482 MISS:        916
cpu0_L2C PREFETCH REQUESTED:     639088 ISSUED:     639087 USEFUL:      92344 USELESS:      53059
cpu0_L2C AVERAGE MISS LATENCY: 576 cycles
cpu0_STLB TOTAL        ACCESS:      30817 HIT:      22540 MISS:       8277
cpu0_STLB LOAD         ACCESS:      30817 HIT:      22540 MISS:       8277
cpu0_STLB RFO          ACCESS:          0 HIT:          0 MISS:          0
cpu0_STLB PREFETCH     ACCESS:          0 HIT:          0 MISS:          0
cpu0_STLB WRITE        ACCESS:          0 HIT:          0 MISS:          0
cpu0_STLB TRANSLATION  ACCESS:          0 HIT:          0 MISS:          0
cpu0_STLB PREFETCH REQUESTED:          0 ISSUED:          0 USEFUL:          0 USELESS:          0
cpu0_STLB AVERAGE MISS LATENCY: 316.7 cycles

DRAM Statistics

Channel 0 RQ ROW_BUFFER_HIT:     191673
  ROW_BUFFER_MISS:     322367
 AVG DBUS CONGESTED CYCLE: 3.937
WQ ROW_BUFFER_HIT: Channel 0 
  ROW_BUFFER_MISS:       5859
  FULL:     108342
