WARNING: physical memory size is smaller than virtual memory size.

*** ChampSim Multicore Out-of-Order Simulator ***
Warmup Instructions: 25000000
Simulation Instructions: 25000000
Number of CPUs: 1
Page size: 4096

Off-chip DRAM Size: 4 GiB Channels: 1 Width: 64-bit Data Race: 800 MT/s
Heartbeat CPU 0 instructions: 10000001 cycles: 2500074 heartbeat IPC: 4 cumulative IPC: 4 (Simulation time: 00 hr 00 min 34 sec)
Heartbeat CPU 0 instructions: 20000001 cycles: 5000074 heartbeat IPC: 4 cumulative IPC: 4 (Simulation time: 00 hr 01 min 07 sec)
Warmup finished CPU 0 instructions: 25000001 cycles: 6250075 cumulative IPC: 4 (Simulation time: 00 hr 01 min 24 sec)
Warmup complete CPU 0 instructions: 25000001 cycles: 6250075 cumulative IPC: 4 (Simulation time: 00 hr 01 min 24 sec)
Heartbeat CPU 0 instructions: 30000002 cycles: 32557983 heartbeat IPC: 0.3629 cumulative IPC: 0.1901 (Simulation time: 00 hr 05 min 20 sec)
Heartbeat CPU 0 instructions: 40000000 cycles: 75157835 heartbeat IPC: 0.2347 cumulative IPC: 0.2177 (Simulation time: 00 hr 11 min 47 sec)
Heartbeat CPU 0 instructions: 50000003 cycles: 86271978 heartbeat IPC: 0.8998 cumulative IPC: 0.3124 (Simulation time: 00 hr 13 min 36 sec)
Simulation finished CPU 0 instructions: 25000002 cycles: 80021904 cumulative IPC: 0.3124 (Simulation time: 00 hr 13 min 36 sec)
Simulation complete CPU 0 instructions: 25000002 cycles: 80021904 cumulative IPC: 0.3124 (Simulation time: 00 hr 13 min 36 sec)

ChampSim completed all CPUs

=== Simulation ===
CPU 0 runs ./traces/libquantum_964B.trace.xz
Region of Interest Statistics

CPU 0 cumulative IPC: 0.3124 instructions: 25000002 cycles: 80021904
CPU 0 Branch Prediction Accuracy: 99.98% MPKI: 0.05316 Average ROB Occupancy at Mispredict: 86.03
Branch type MPKI
BRANCH_DIRECT_JUMP: 4e-05
BRANCH_INDIRECT: 0
BRANCH_CONDITIONAL: 0.0527
BRANCH_DIRECT_CALL: 0.0002
BRANCH_INDIRECT_CALL: 0
BRANCH_RETURN: 0.0002

LLC TOTAL        ACCESS:    1805335 HIT:     545475 MISS:    1259860
LLC LOAD         ACCESS:     210430 HIT:      12184 MISS:     198246
LLC RFO          ACCESS:          8 HIT:          0 MISS:          8
LLC PREFETCH     ACCESS:    1068661 HIT:       8189 MISS:    1060472
LLC WRITE        ACCESS:     526199 HIT:     525102 MISS:       1097
LLC TRANSLATION  ACCESS:         37 HIT:          0 MISS:         37
LLC PREFETCH REQUESTED:          0 ISSUED:          0 USEFUL:          0 USELESS:          0
LLC AVERAGE MISS LATENCY: 785.6 cycles
cpu0_DTLB TOTAL        ACCESS:    4203792 HIT:    4139804 MISS:      63988
cpu0_DTLB LOAD         ACCESS:    4203792 HIT:    4139804 MISS:      63988
cpu0_DTLB RFO          ACCESS:          0 HIT:          0 MISS:          0
cpu0_DTLB PREFETCH     ACCESS:          0 HIT:          0 MISS:          0
cpu0_DTLB WRITE        ACCESS:          0 HIT:          0 MISS:          0
cpu0_DTLB TRANSLATION  ACCESS:          0 HIT:          0 MISS:          0
cpu0_DTLB PREFETCH REQUESTED:          0 ISSUED:          0 USEFUL:          0 USELESS:          0
cpu0_DTLB AVERAGE MISS LATENCY: 2.799 cycles
cpu0_ITLB TOTAL        ACCESS:          8 HIT:          7 MISS:          1
cpu0_ITLB LOAD         ACCESS:          8 HIT:          7 MISS:          1
cpu0_ITLB RFO          ACCESS:          0 HIT:          0 MISS:          0
cpu0_ITLB PREFETCH     ACCESS:          0 HIT:          0 MISS:          0
cpu0_ITLB WRITE        ACCESS:          0 HIT:          0 MISS:          0
cpu0_ITLB TRANSLATION  ACCESS:          0 HIT:          0 MISS:          0
cpu0_ITLB PREFETCH REQUESTED:          0 ISSUED:          0 USEFUL:          0 USELESS:          0
cpu0_ITLB AVERAGE MISS LATENCY: 637 cycles
cpu0_L1D TOTAL        ACCESS:    8198377 HIT:    2337512 MISS:    5860865
cpu0_L1D LOAD         ACCESS:    3429920 HIT:     122517 MISS:    3307403
cpu0_L1D RFO          ACCESS:          0 HIT:          0 MISS:          0
cpu0_L1D PREFETCH     ACCESS:    2655445 HIT:     102048 MISS:    2553397
cpu0_L1D WRITE        ACCESS:    2098512 HIT:    2098484 MISS:         28
cpu0_L1D TRANSLATION  ACCESS:      14500 HIT:      14463 MISS:         37
cpu0_L1D PREFETCH REQUESTED:   20005917 ISSUED:    2655445 USEFUL:     507508 USELESS:         29
cpu0_L1D AVERAGE MISS LATENCY: 140.7 cycles
cpu0_L1I TOTAL        ACCESS:          8 HIT:          5 MISS:          3
cpu0_L1I LOAD         ACCESS:          8 HIT:          5 MISS:          3
cpu0_L1I RFO          ACCESS:          0 HIT:          0 MISS:          0
cpu0_L1I PREFETCH     ACCESS:          0 HIT:          0 MISS:          0
cpu0_L1I WRITE        ACCESS:          0 HIT:          0 MISS:          0
cpu0_L1I TRANSLATION  ACCESS:          0 HIT:          0 MISS:          0
cpu0_L1I PREFETCH REQUESTED:          0 ISSUED:          0 USEFUL:          0 USELESS:          0
cpu0_L1I AVERAGE MISS LATENCY: 349 cycles
cpu0_L2C TOTAL        ACCESS:    3713928 HIT:     533905 MISS:    3180023
cpu0_L2C LOAD         ACCESS:     419894 HIT:       2021 MISS:     417873
cpu0_L2C RFO          ACCESS:          8 HIT:          0 MISS:          8
cpu0_L2C PREFETCH     ACCESS:    2768318 HIT:       6213 MISS:    2762105
cpu0_L2C WRITE        ACCESS:     525671 HIT:     525671 MISS:          0
cpu0_L2C TRANSLATION  ACCESS:         37 HIT:          0 MISS:         37
cpu0_L2C PREFETCH REQUESTED:    2260782 ISSUED:    2260782 USEFUL:     242766 USELESS:     388523
cpu0_L2C AVERAGE MISS LATENCY: 291.3 cycles
cpu0_STLB TOTAL        ACCESS:      14500 HIT:          0 MISS:      14500
cpu0_STLB LOAD         ACCESS:      14500 HIT:          0 MISS:      14500
cpu0_STLB RFO          ACCESS:          0 HIT:          0 MISS:          0
cpu0_STLB PREFETCH     ACCESS:          0 HIT:          0 MISS:          0
cpu0_STLB WRITE        ACCESS:          0 HIT:          0 MISS:          0
cpu0_STLB TRANSLATION  ACCESS:          0 HIT:          0 MISS:          0
cpu0_STLB PREFETCH REQUESTED:          0 ISSUED:          0 USEFUL:          0 USELESS:          0
cpu0_STLB AVERAGE MISS LATENCY: 12.88 cycles

DRAM Statistics

Channel 0 RQ ROW_BUFFER_HIT:     542626
  ROW_BUFFER_MISS:     384889
 AVG DBUS CONGESTED CYCLE: 3.969
WQ ROW_BUFFER_HIT: Channel 0 
  ROW_BUFFER_MISS:      75911
  FULL:     454346
