WARNING: physical memory size is smaller than virtual memory size.

*** ChampSim Multicore Out-of-Order Simulator ***
Warmup Instructions: 25000000
Simulation Instructions: 25000000
Number of CPUs: 1
Page size: 4096

Off-chip DRAM Size: 4 GiB Channels: 1 Width: 64-bit Data Race: 800 MT/s
Heartbeat CPU 0 instructions: 10000000 cycles: 2580263 heartbeat IPC: 3.876 cumulative IPC: 3.876 (Simulation time: 00 hr 00 min 42 sec)
Heartbeat CPU 0 instructions: 20000002 cycles: 5135934 heartbeat IPC: 3.913 cumulative IPC: 3.894 (Simulation time: 00 hr 01 min 25 sec)
Warmup finished CPU 0 instructions: 25000000 cycles: 6436690 cumulative IPC: 3.884 (Simulation time: 00 hr 01 min 46 sec)
Warmup complete CPU 0 instructions: 25000000 cycles: 6436690 cumulative IPC: 3.884 (Simulation time: 00 hr 01 min 46 sec)
Heartbeat CPU 0 instructions: 30000002 cycles: 26866757 heartbeat IPC: 0.4602 cumulative IPC: 0.2447 (Simulation time: 00 hr 04 min 13 sec)
Heartbeat CPU 0 instructions: 40000003 cycles: 67462362 heartbeat IPC: 0.2463 cumulative IPC: 0.2458 (Simulation time: 00 hr 09 min 13 sec)
Heartbeat CPU 0 instructions: 50000002 cycles: 106537342 heartbeat IPC: 0.2559 cumulative IPC: 0.2497 (Simulation time: 00 hr 12 min 40 sec)
Simulation finished CPU 0 instructions: 25000002 cycles: 100100653 cumulative IPC: 0.2497 (Simulation time: 00 hr 12 min 40 sec)
Simulation complete CPU 0 instructions: 25000002 cycles: 100100653 cumulative IPC: 0.2497 (Simulation time: 00 hr 12 min 40 sec)

ChampSim completed all CPUs

=== Simulation ===
CPU 0 runs ./traces/soplex_217B.trace.xz
Region of Interest Statistics

CPU 0 cumulative IPC: 0.2497 instructions: 25000002 cycles: 100100653
CPU 0 Branch Prediction Accuracy: 95.1% MPKI: 11 Average ROB Occupancy at Mispredict: 67.86
Branch type MPKI
BRANCH_DIRECT_JUMP: 0.0653
BRANCH_INDIRECT: 0.00024
BRANCH_CONDITIONAL: 10.9
BRANCH_DIRECT_CALL: 4e-05
BRANCH_INDIRECT_CALL: 0.00044
BRANCH_RETURN: 0.00048

LLC TOTAL        ACCESS:    2201921 HIT:    1012641 MISS:    1189280
LLC LOAD         ACCESS:     663687 HIT:     210054 MISS:     453633
LLC RFO          ACCESS:     144585 HIT:      36291 MISS:     108294
LLC PREFETCH     ACCESS:     856600 HIT:     239569 MISS:     617031
LLC WRITE        ACCESS:     523358 HIT:     520853 MISS:       2505
LLC TRANSLATION  ACCESS:      13691 HIT:       5874 MISS:       7817
LLC PREFETCH REQUESTED:          0 ISSUED:          0 USEFUL:          0 USELESS:          0
LLC AVERAGE MISS LATENCY: 920.2 cycles
cpu0_DTLB TOTAL        ACCESS:    5413188 HIT:    5112080 MISS:     301108
cpu0_DTLB LOAD         ACCESS:    5413188 HIT:    5112080 MISS:     301108
cpu0_DTLB RFO          ACCESS:          0 HIT:          0 MISS:          0
cpu0_DTLB PREFETCH     ACCESS:          0 HIT:          0 MISS:          0
cpu0_DTLB WRITE        ACCESS:          0 HIT:          0 MISS:          0
cpu0_DTLB TRANSLATION  ACCESS:          0 HIT:          0 MISS:          0
cpu0_DTLB PREFETCH REQUESTED:          0 ISSUED:          0 USEFUL:          0 USELESS:          0
cpu0_DTLB AVERAGE MISS LATENCY: 30.43 cycles
cpu0_ITLB TOTAL        ACCESS:       1653 HIT:       1653 MISS:          0
cpu0_ITLB LOAD         ACCESS:       1653 HIT:       1653 MISS:          0
cpu0_ITLB RFO          ACCESS:          0 HIT:          0 MISS:          0
cpu0_ITLB PREFETCH     ACCESS:          0 HIT:          0 MISS:          0
cpu0_ITLB WRITE        ACCESS:          0 HIT:          0 MISS:          0
cpu0_ITLB TRANSLATION  ACCESS:          0 HIT:          0 MISS:          0
cpu0_ITLB PREFETCH REQUESTED:          0 ISSUED:          0 USEFUL:          0 USELESS:          0
cpu0_ITLB AVERAGE MISS LATENCY: -nan cycles
cpu0_L1D TOTAL        ACCESS:   10009726 HIT:    5540702 MISS:    4469024
cpu0_L1D LOAD         ACCESS:    4648141 HIT:    2600290 MISS:    2047851
cpu0_L1D RFO          ACCESS:          0 HIT:          0 MISS:          0
cpu0_L1D PREFETCH     ACCESS:    3841989 HIT:    1888483 MISS:    1953506
cpu0_L1D WRITE        ACCESS:    1493458 HIT:    1046621 MISS:     446837
cpu0_L1D TRANSLATION  ACCESS:      26138 HIT:       5308 MISS:      20830
cpu0_L1D PREFETCH REQUESTED:   24996471 ISSUED:    3841991 USEFUL:     346023 USELESS:     365337
cpu0_L1D AVERAGE MISS LATENCY: 215.8 cycles
cpu0_L1I TOTAL        ACCESS:       1971 HIT:       1914 MISS:         57
cpu0_L1I LOAD         ACCESS:       1971 HIT:       1914 MISS:         57
cpu0_L1I RFO          ACCESS:          0 HIT:          0 MISS:          0
cpu0_L1I PREFETCH     ACCESS:          0 HIT:          0 MISS:          0
cpu0_L1I WRITE        ACCESS:          0 HIT:          0 MISS:          0
cpu0_L1I TRANSLATION  ACCESS:          0 HIT:          0 MISS:          0
cpu0_L1I PREFETCH REQUESTED:          0 ISSUED:          0 USEFUL:          0 USELESS:          0
cpu0_L1I AVERAGE MISS LATENCY: 333.6 cycles
cpu0_L2C TOTAL        ACCESS:    3533084 HIT:    1540625 MISS:    1992459
cpu0_L2C LOAD         ACCESS:    1036658 HIT:     334410 MISS:     702248
cpu0_L2C RFO          ACCESS:     159291 HIT:      14706 MISS:     144585
cpu0_L2C PREFETCH     ACCESS:    1599286 HIT:     467386 MISS:    1131900
cpu0_L2C WRITE        ACCESS:     717182 HIT:     717147 MISS:         35
cpu0_L2C TRANSLATION  ACCESS:      20667 HIT:       6976 MISS:      13691
cpu0_L2C PREFETCH REQUESTED:     893370 ISSUED:     887930 USEFUL:     182766 USELESS:      73043
cpu0_L2C AVERAGE MISS LATENCY: 528.8 cycles
cpu0_STLB TOTAL        ACCESS:     157513 HIT:     131473 MISS:      26040
cpu0_STLB LOAD         ACCESS:     157513 HIT:     131473 MISS:      26040
cpu0_STLB RFO          ACCESS:          0 HIT:          0 MISS:          0
cpu0_STLB PREFETCH     ACCESS:          0 HIT:          0 MISS:          0
cpu0_STLB WRITE        ACCESS:          0 HIT:          0 MISS:          0
cpu0_STLB TRANSLATION  ACCESS:          0 HIT:          0 MISS:          0
cpu0_STLB PREFETCH REQUESTED:          0 ISSUED:          0 USEFUL:          0 USELESS:          0
cpu0_STLB AVERAGE MISS LATENCY: 412.2 cycles

DRAM Statistics

Channel 0 RQ ROW_BUFFER_HIT:     338527
  ROW_BUFFER_MISS:     730207
 AVG DBUS CONGESTED CYCLE: 3.926
WQ ROW_BUFFER_HIT: Channel 0 
  ROW_BUFFER_MISS:      12816
  FULL:     339775
