WARNING: physical memory size is smaller than virtual memory size.

*** ChampSim Multicore Out-of-Order Simulator ***
Warmup Instructions: 25000000
Simulation Instructions: 25000000
Number of CPUs: 1
Page size: 4096

Off-chip DRAM Size: 4 GiB Channels: 1 Width: 64-bit Data Race: 800 MT/s
Heartbeat CPU 0 instructions: 10000001 cycles: 2516680 heartbeat IPC: 3.973 cumulative IPC: 3.973 (Simulation time: 00 hr 00 min 41 sec)
Heartbeat CPU 0 instructions: 20000002 cycles: 5148686 heartbeat IPC: 3.799 cumulative IPC: 3.884 (Simulation time: 00 hr 01 min 21 sec)
Warmup finished CPU 0 instructions: 25000001 cycles: 6552831 cumulative IPC: 3.815 (Simulation time: 00 hr 01 min 41 sec)
Warmup complete CPU 0 instructions: 25000001 cycles: 6552831 cumulative IPC: 3.815 (Simulation time: 00 hr 01 min 41 sec)
Heartbeat CPU 0 instructions: 30000001 cycles: 9957566 heartbeat IPC: 2.079 cumulative IPC: 1.469 (Simulation time: 00 hr 02 min 19 sec)
Heartbeat CPU 0 instructions: 40000001 cycles: 16646590 heartbeat IPC: 1.495 cumulative IPC: 1.486 (Simulation time: 00 hr 03 min 28 sec)
Heartbeat CPU 0 instructions: 50000000 cycles: 23310473 heartbeat IPC: 1.501 cumulative IPC: 1.492 (Simulation time: 00 hr 04 min 27 sec)
Simulation finished CPU 0 instructions: 25000003 cycles: 16757644 cumulative IPC: 1.492 (Simulation time: 00 hr 04 min 27 sec)
Simulation complete CPU 0 instructions: 25000003 cycles: 16757644 cumulative IPC: 1.492 (Simulation time: 00 hr 04 min 27 sec)

ChampSim completed all CPUs

=== Simulation ===
CPU 0 runs ./traces/zeusmp_100B.trace.xz
Region of Interest Statistics

CPU 0 cumulative IPC: 1.492 instructions: 25000003 cycles: 16757644
CPU 0 Branch Prediction Accuracy: 99.35% MPKI: 0.3559 Average ROB Occupancy at Mispredict: 287.1
Branch type MPKI
BRANCH_DIRECT_JUMP: 0
BRANCH_INDIRECT: 0
BRANCH_CONDITIONAL: 0.356
BRANCH_DIRECT_CALL: 0
BRANCH_INDIRECT_CALL: 0
BRANCH_RETURN: 0

LLC TOTAL        ACCESS:     204819 HIT:      75655 MISS:     129164
LLC LOAD         ACCESS:      41885 HIT:      10647 MISS:      31238
LLC RFO          ACCESS:      49536 HIT:          0 MISS:      49536
LLC PREFETCH     ACCESS:      60991 HIT:      15038 MISS:      45953
LLC WRITE        ACCESS:      49583 HIT:      48801 MISS:        782
LLC TRANSLATION  ACCESS:       2824 HIT:       1169 MISS:       1655
LLC PREFETCH REQUESTED:          0 ISSUED:          0 USEFUL:          0 USELESS:          0
LLC AVERAGE MISS LATENCY: 1047 cycles
cpu0_DTLB TOTAL        ACCESS:    4666843 HIT:    3532845 MISS:    1133998
cpu0_DTLB LOAD         ACCESS:    4666843 HIT:    3532845 MISS:    1133998
cpu0_DTLB RFO          ACCESS:          0 HIT:          0 MISS:          0
cpu0_DTLB PREFETCH     ACCESS:          0 HIT:          0 MISS:          0
cpu0_DTLB WRITE        ACCESS:          0 HIT:          0 MISS:          0
cpu0_DTLB TRANSLATION  ACCESS:          0 HIT:          0 MISS:          0
cpu0_DTLB PREFETCH REQUESTED:          0 ISSUED:          0 USEFUL:          0 USELESS:          0
cpu0_DTLB AVERAGE MISS LATENCY: 9.763 cycles
cpu0_ITLB TOTAL        ACCESS:          0 HIT:          0 MISS:          0
cpu0_ITLB LOAD         ACCESS:          0 HIT:          0 MISS:          0
cpu0_ITLB RFO          ACCESS:          0 HIT:          0 MISS:          0
cpu0_ITLB PREFETCH     ACCESS:          0 HIT:          0 MISS:          0
cpu0_ITLB WRITE        ACCESS:          0 HIT:          0 MISS:          0
cpu0_ITLB TRANSLATION  ACCESS:          0 HIT:          0 MISS:          0
cpu0_ITLB PREFETCH REQUESTED:          0 ISSUED:          0 USEFUL:          0 USELESS:          0
cpu0_ITLB AVERAGE MISS LATENCY: -nan cycles
cpu0_L1D TOTAL        ACCESS:    7312291 HIT:    5401252 MISS:    1911039
cpu0_L1D LOAD         ACCESS:    3754304 HIT:    2886957 MISS:     867347
cpu0_L1D RFO          ACCESS:          0 HIT:          0 MISS:          0
cpu0_L1D PREFETCH     ACCESS:    1791151 HIT:    1446434 MISS:     344717
cpu0_L1D WRITE        ACCESS:    1763656 HIT:    1067861 MISS:     695795
cpu0_L1D TRANSLATION  ACCESS:       3180 HIT:          0 MISS:       3180
cpu0_L1D PREFETCH REQUESTED:    6174824 ISSUED:    1791151 USEFUL:      61658 USELESS:     214659
cpu0_L1D AVERAGE MISS LATENCY: 81.93 cycles
cpu0_L1I TOTAL        ACCESS:          0 HIT:          0 MISS:          0
cpu0_L1I LOAD         ACCESS:          0 HIT:          0 MISS:          0
cpu0_L1I RFO          ACCESS:          0 HIT:          0 MISS:          0
cpu0_L1I PREFETCH     ACCESS:          0 HIT:          0 MISS:          0
cpu0_L1I WRITE        ACCESS:          0 HIT:          0 MISS:          0
cpu0_L1I TRANSLATION  ACCESS:          0 HIT:          0 MISS:          0
cpu0_L1I PREFETCH REQUESTED:          0 ISSUED:          0 USEFUL:          0 USELESS:          0
cpu0_L1I AVERAGE MISS LATENCY: -nan cycles
cpu0_L2C TOTAL        ACCESS:    2319543 HIT:    2164306 MISS:     155237
cpu0_L2C LOAD         ACCESS:     845521 HIT:     803636 MISS:      41885
cpu0_L2C RFO          ACCESS:     545521 HIT:     495985 MISS:      49536
cpu0_L2C PREFETCH     ACCESS:     359601 HIT:     298609 MISS:      60992
cpu0_L2C WRITE        ACCESS:     565720 HIT:     565720 MISS:          0
cpu0_L2C TRANSLATION  ACCESS:       3180 HIT:        356 MISS:       2824
cpu0_L2C PREFETCH REQUESTED:      83569 ISSUED:      83210 USEFUL:          0 USELESS:        146
cpu0_L2C AVERAGE MISS LATENCY: 891.6 cycles
cpu0_STLB TOTAL        ACCESS:    1051367 HIT:    1049405 MISS:       1962
cpu0_STLB LOAD         ACCESS:    1051367 HIT:    1049405 MISS:       1962
cpu0_STLB RFO          ACCESS:          0 HIT:          0 MISS:          0
cpu0_STLB PREFETCH     ACCESS:          0 HIT:          0 MISS:          0
cpu0_STLB WRITE        ACCESS:          0 HIT:          0 MISS:          0
cpu0_STLB TRANSLATION  ACCESS:          0 HIT:          0 MISS:          0
cpu0_STLB PREFETCH REQUESTED:          0 ISSUED:          0 USEFUL:          0 USELESS:          0
cpu0_STLB AVERAGE MISS LATENCY: 1459 cycles

DRAM Statistics

Channel 0 RQ ROW_BUFFER_HIT:      24554
  ROW_BUFFER_MISS:     103821
 AVG DBUS CONGESTED CYCLE: 3.991
WQ ROW_BUFFER_HIT: Channel 0 
  ROW_BUFFER_MISS:        875
  FULL:      51462
