WARNING: physical memory size is smaller than virtual memory size.

*** ChampSim Multicore Out-of-Order Simulator ***
Warmup Instructions: 25000000
Simulation Instructions: 25000000
Number of CPUs: 1
Page size: 4096

Off-chip DRAM Size: 4 GiB Channels: 1 Width: 64-bit Data Race: 800 MT/s
Heartbeat CPU 0 instructions: 10000001 cycles: 2536642 heartbeat IPC: 3.942 cumulative IPC: 3.942 (Simulation time: 00 hr 00 min 40 sec)
Heartbeat CPU 0 instructions: 20000000 cycles: 5079343 heartbeat IPC: 3.933 cumulative IPC: 3.938 (Simulation time: 00 hr 01 min 16 sec)
Warmup finished CPU 0 instructions: 25000003 cycles: 6355159 cumulative IPC: 3.934 (Simulation time: 00 hr 01 min 33 sec)
Warmup complete CPU 0 instructions: 25000003 cycles: 6355159 cumulative IPC: 3.934 (Simulation time: 00 hr 01 min 33 sec)
Heartbeat CPU 0 instructions: 30000003 cycles: 8137260 heartbeat IPC: 3.27 cumulative IPC: 2.806 (Simulation time: 00 hr 01 min 56 sec)
Heartbeat CPU 0 instructions: 40000000 cycles: 11707562 heartbeat IPC: 2.801 cumulative IPC: 2.802 (Simulation time: 00 hr 02 min 39 sec)
Heartbeat CPU 0 instructions: 50000000 cycles: 15282271 heartbeat IPC: 2.797 cumulative IPC: 2.8 (Simulation time: 00 hr 03 min 21 sec)
Simulation finished CPU 0 instructions: 25000003 cycles: 8927116 cumulative IPC: 2.8 (Simulation time: 00 hr 03 min 21 sec)
Simulation complete CPU 0 instructions: 25000003 cycles: 8927116 cumulative IPC: 2.8 (Simulation time: 00 hr 03 min 21 sec)

ChampSim completed all CPUs

=== Simulation ===
CPU 0 runs ./traces/zeusmp_600B.trace.xz
Region of Interest Statistics

CPU 0 cumulative IPC: 2.8 instructions: 25000003 cycles: 8927116
CPU 0 Branch Prediction Accuracy: 97.56% MPKI: 0.8748 Average ROB Occupancy at Mispredict: 196.6
Branch type MPKI
BRANCH_DIRECT_JUMP: 0
BRANCH_INDIRECT: 0
BRANCH_CONDITIONAL: 0.875
BRANCH_DIRECT_CALL: 0
BRANCH_INDIRECT_CALL: 0
BRANCH_RETURN: 0

LLC TOTAL        ACCESS:      95497 HIT:      16046 MISS:      79451
LLC LOAD         ACCESS:      12451 HIT:         42 MISS:      12409
LLC RFO          ACCESS:          0 HIT:          0 MISS:          0
LLC PREFETCH     ACCESS:      67175 HIT:        237 MISS:      66938
LLC WRITE        ACCESS:      15821 HIT:      15764 MISS:         57
LLC TRANSLATION  ACCESS:         50 HIT:          3 MISS:         47
LLC PREFETCH REQUESTED:          0 ISSUED:          0 USEFUL:          0 USELESS:          0
LLC AVERAGE MISS LATENCY: 291.4 cycles
cpu0_DTLB TOTAL        ACCESS:    4595634 HIT:    4580719 MISS:      14915
cpu0_DTLB LOAD         ACCESS:    4595634 HIT:    4580719 MISS:      14915
cpu0_DTLB RFO          ACCESS:          0 HIT:          0 MISS:          0
cpu0_DTLB PREFETCH     ACCESS:          0 HIT:          0 MISS:          0
cpu0_DTLB WRITE        ACCESS:          0 HIT:          0 MISS:          0
cpu0_DTLB TRANSLATION  ACCESS:          0 HIT:          0 MISS:          0
cpu0_DTLB PREFETCH REQUESTED:          0 ISSUED:          0 USEFUL:          0 USELESS:          0
cpu0_DTLB AVERAGE MISS LATENCY: 8.744 cycles
cpu0_ITLB TOTAL        ACCESS:     149891 HIT:     149891 MISS:          0
cpu0_ITLB LOAD         ACCESS:     149891 HIT:     149891 MISS:          0
cpu0_ITLB RFO          ACCESS:          0 HIT:          0 MISS:          0
cpu0_ITLB PREFETCH     ACCESS:          0 HIT:          0 MISS:          0
cpu0_ITLB WRITE        ACCESS:          0 HIT:          0 MISS:          0
cpu0_ITLB TRANSLATION  ACCESS:          0 HIT:          0 MISS:          0
cpu0_ITLB PREFETCH REQUESTED:          0 ISSUED:          0 USEFUL:          0 USELESS:          0
cpu0_ITLB AVERAGE MISS LATENCY: -nan cycles
cpu0_L1D TOTAL        ACCESS:    8457028 HIT:    7684729 MISS:     772299
cpu0_L1D LOAD         ACCESS:    3936218 HIT:    3532705 MISS:     403513
cpu0_L1D RFO          ACCESS:          0 HIT:          0 MISS:          0
cpu0_L1D PREFETCH     ACCESS:    2716298 HIT:    2360592 MISS:     355706
cpu0_L1D WRITE        ACCESS:    1803301 HIT:    1791432 MISS:      11869
cpu0_L1D TRANSLATION  ACCESS:       1211 HIT:          0 MISS:       1211
cpu0_L1D PREFETCH REQUESTED:    3936218 ISSUED:    2716301 USEFUL:      74311 USELESS:       6361
cpu0_L1D AVERAGE MISS LATENCY: 19.07 cycles
cpu0_L1I TOTAL        ACCESS:     189153 HIT:     189153 MISS:          0
cpu0_L1I LOAD         ACCESS:     189153 HIT:     189153 MISS:          0
cpu0_L1I RFO          ACCESS:          0 HIT:          0 MISS:          0
cpu0_L1I PREFETCH     ACCESS:          0 HIT:          0 MISS:          0
cpu0_L1I WRITE        ACCESS:          0 HIT:          0 MISS:          0
cpu0_L1I TRANSLATION  ACCESS:          0 HIT:          0 MISS:          0
cpu0_L1I PREFETCH REQUESTED:          0 ISSUED:          0 USEFUL:          0 USELESS:          0
cpu0_L1I AVERAGE MISS LATENCY: -nan cycles
cpu0_L2C TOTAL        ACCESS:     281171 HIT:     137309 MISS:     143862
cpu0_L2C LOAD         ACCESS:      49871 HIT:      25215 MISS:      24656
cpu0_L2C RFO          ACCESS:       6153 HIT:       6153 MISS:          0
cpu0_L2C PREFETCH     ACCESS:     190417 HIT:      71284 MISS:     119133
cpu0_L2C WRITE        ACCESS:      33519 HIT:      33496 MISS:         23
cpu0_L2C TRANSLATION  ACCESS:       1211 HIT:       1161 MISS:         50
cpu0_L2C PREFETCH REQUESTED:     109740 ISSUED:     109740 USEFUL:      24887 USELESS:      11240
cpu0_L2C AVERAGE MISS LATENCY: 166.2 cycles
cpu0_STLB TOTAL        ACCESS:       1546 HIT:        336 MISS:       1210
cpu0_STLB LOAD         ACCESS:       1546 HIT:        336 MISS:       1210
cpu0_STLB RFO          ACCESS:          0 HIT:          0 MISS:          0
cpu0_STLB PREFETCH     ACCESS:          0 HIT:          0 MISS:          0
cpu0_STLB WRITE        ACCESS:          0 HIT:          0 MISS:          0
cpu0_STLB TRANSLATION  ACCESS:          0 HIT:          0 MISS:          0
cpu0_STLB PREFETCH REQUESTED:          0 ISSUED:          0 USEFUL:          0 USELESS:          0
cpu0_STLB AVERAGE MISS LATENCY: 216.9 cycles

DRAM Statistics

Channel 0 RQ ROW_BUFFER_HIT:      59853
  ROW_BUFFER_MISS:      19493
 AVG DBUS CONGESTED CYCLE: 3.942
WQ ROW_BUFFER_HIT: Channel 0 
  ROW_BUFFER_MISS:       3972
  FULL:      10484
