WARNING: physical memory size is smaller than virtual memory size.

*** ChampSim Multicore Out-of-Order Simulator ***
Warmup Instructions: 25000000
Simulation Instructions: 25000000
Number of CPUs: 1
Page size: 4096

Off-chip DRAM Size: 4 GiB Channels: 1 Width: 64-bit Data Race: 800 MT/s
Heartbeat CPU 0 instructions: 10000001 cycles: 2500087 heartbeat IPC: 4 cumulative IPC: 4 (Simulation time: 00 hr 00 min 25 sec)
Heartbeat CPU 0 instructions: 20000003 cycles: 5000108 heartbeat IPC: 4 cumulative IPC: 4 (Simulation time: 00 hr 00 min 52 sec)
Warmup finished CPU 0 instructions: 25000003 cycles: 6250109 cumulative IPC: 4 (Simulation time: 00 hr 01 min 06 sec)
Warmup complete CPU 0 instructions: 25000003 cycles: 6250109 cumulative IPC: 4 (Simulation time: 00 hr 01 min 06 sec)
Heartbeat CPU 0 instructions: 30000000 cycles: 11004458 heartbeat IPC: 1.665 cumulative IPC: 1.052 (Simulation time: 00 hr 01 min 36 sec)
Heartbeat CPU 0 instructions: 40000001 cycles: 20748683 heartbeat IPC: 1.026 cumulative IPC: 1.035 (Simulation time: 00 hr 02 min 36 sec)
Heartbeat CPU 0 instructions: 50000002 cycles: 31853417 heartbeat IPC: 0.9005 cumulative IPC: 0.9764 (Simulation time: 00 hr 03 min 43 sec)
Simulation finished CPU 0 instructions: 25000003 cycles: 25603310 cumulative IPC: 0.9764 (Simulation time: 00 hr 03 min 43 sec)
Simulation complete CPU 0 instructions: 25000003 cycles: 25603310 cumulative IPC: 0.9764 (Simulation time: 00 hr 03 min 43 sec)

ChampSim completed all CPUs

=== Simulation ===
CPU 0 runs ./traces/602.gcc_s-734B.champsimtrace.xz
Region of Interest Statistics

CPU 0 cumulative IPC: 0.9764 instructions: 25000003 cycles: 25603310
CPU 0 Branch Prediction Accuracy: 89.42% MPKI: 25.09 Average ROB Occupancy at Mispredict: 17.5
Branch type MPKI
BRANCH_DIRECT_JUMP: 0.0794
BRANCH_INDIRECT: 0
BRANCH_CONDITIONAL: 25
BRANCH_DIRECT_CALL: 0.0548
BRANCH_INDIRECT_CALL: 0
BRANCH_RETURN: 0

LLC TOTAL        ACCESS:     211573 HIT:       1390 MISS:     210183
LLC LOAD         ACCESS:       6022 HIT:        101 MISS:       5921
LLC RFO          ACCESS:          1 HIT:          0 MISS:          1
LLC PREFETCH     ACCESS:     201672 HIT:        200 MISS:     201472
LLC WRITE        ACCESS:       1294 HIT:        789 MISS:        505
LLC TRANSLATION  ACCESS:       2584 HIT:        300 MISS:       2284
LLC PREFETCH REQUESTED:          0 ISSUED:          0 USEFUL:          0 USELESS:          0
LLC AVERAGE MISS LATENCY: 133.4 cycles
cpu0_DTLB TOTAL        ACCESS:    6245151 HIT:    6232569 MISS:      12582
cpu0_DTLB LOAD         ACCESS:    6245151 HIT:    6232569 MISS:      12582
cpu0_DTLB RFO          ACCESS:          0 HIT:          0 MISS:          0
cpu0_DTLB PREFETCH     ACCESS:          0 HIT:          0 MISS:          0
cpu0_DTLB WRITE        ACCESS:          0 HIT:          0 MISS:          0
cpu0_DTLB TRANSLATION  ACCESS:          0 HIT:          0 MISS:          0
cpu0_DTLB PREFETCH REQUESTED:          0 ISSUED:          0 USEFUL:          0 USELESS:          0
cpu0_DTLB AVERAGE MISS LATENCY: 74.35 cycles
cpu0_ITLB TOTAL        ACCESS:          4 HIT:          4 MISS:          0
cpu0_ITLB LOAD         ACCESS:          4 HIT:          4 MISS:          0
cpu0_ITLB RFO          ACCESS:          0 HIT:          0 MISS:          0
cpu0_ITLB PREFETCH     ACCESS:          0 HIT:          0 MISS:          0
cpu0_ITLB WRITE        ACCESS:          0 HIT:          0 MISS:          0
cpu0_ITLB TRANSLATION  ACCESS:          0 HIT:          0 MISS:          0
cpu0_ITLB PREFETCH REQUESTED:          0 ISSUED:          0 USEFUL:          0 USELESS:          0
cpu0_ITLB AVERAGE MISS LATENCY: -nan cycles
cpu0_L1D TOTAL        ACCESS:   13799609 HIT:   11687080 MISS:    2112529
cpu0_L1D LOAD         ACCESS:    5605919 HIT:    5323336 MISS:     282583
cpu0_L1D RFO          ACCESS:          0 HIT:          0 MISS:          0
cpu0_L1D PREFETCH     ACCESS:    5600424 HIT:    3773308 MISS:    1827116
cpu0_L1D WRITE        ACCESS:    2587659 HIT:    2587624 MISS:         35
cpu0_L1D TRANSLATION  ACCESS:       5607 HIT:       2812 MISS:       2795
cpu0_L1D PREFETCH REQUESTED:    5608874 ISSUED:    5600425 USEFUL:     388251 USELESS:      12563
cpu0_L1D AVERAGE MISS LATENCY: 9.538 cycles
cpu0_L1I TOTAL        ACCESS:          4 HIT:          4 MISS:          0
cpu0_L1I LOAD         ACCESS:          4 HIT:          4 MISS:          0
cpu0_L1I RFO          ACCESS:          0 HIT:          0 MISS:          0
cpu0_L1I PREFETCH     ACCESS:          0 HIT:          0 MISS:          0
cpu0_L1I WRITE        ACCESS:          0 HIT:          0 MISS:          0
cpu0_L1I TRANSLATION  ACCESS:          0 HIT:          0 MISS:          0
cpu0_L1I PREFETCH REQUESTED:          0 ISSUED:          0 USEFUL:          0 USELESS:          0
cpu0_L1I AVERAGE MISS LATENCY: -nan cycles
cpu0_L2C TOTAL        ACCESS:     423364 HIT:     212725 MISS:     210639
cpu0_L2C LOAD         ACCESS:      15617 HIT:       9557 MISS:       6060
cpu0_L2C RFO          ACCESS:         10 HIT:          9 MISS:          1
cpu0_L2C PREFETCH     ACCESS:     402060 HIT:     200070 MISS:     201990
cpu0_L2C WRITE        ACCESS:       2883 HIT:       2879 MISS:          4
cpu0_L2C TRANSLATION  ACCESS:       2794 HIT:        210 MISS:       2584
cpu0_L2C PREFETCH REQUESTED:       1238 ISSUED:       1238 USEFUL:        332 USELESS:        421
cpu0_L2C AVERAGE MISS LATENCY: 154 cycles
cpu0_STLB TOTAL        ACCESS:       7141 HIT:       1951 MISS:       5190
cpu0_STLB LOAD         ACCESS:       7141 HIT:       1951 MISS:       5190
cpu0_STLB RFO          ACCESS:          0 HIT:          0 MISS:          0
cpu0_STLB PREFETCH     ACCESS:          0 HIT:          0 MISS:          0
cpu0_STLB WRITE        ACCESS:          0 HIT:          0 MISS:          0
cpu0_STLB TRANSLATION  ACCESS:          0 HIT:          0 MISS:          0
cpu0_STLB PREFETCH REQUESTED:          0 ISSUED:          0 USEFUL:          0 USELESS:          0
cpu0_STLB AVERAGE MISS LATENCY: 173.9 cycles

DRAM Statistics

Channel 0 RQ ROW_BUFFER_HIT:     158892
  ROW_BUFFER_MISS:      50738
 AVG DBUS CONGESTED CYCLE: 3.595
WQ ROW_BUFFER_HIT: Channel 0 
  ROW_BUFFER_MISS:        878
  FULL:        469
