WARNING: physical memory size is smaller than virtual memory size.

*** ChampSim Multicore Out-of-Order Simulator ***
Warmup Instructions: 25000000
Simulation Instructions: 25000000
Number of CPUs: 1
Page size: 4096

Off-chip DRAM Size: 4 GiB Channels: 1 Width: 64-bit Data Race: 800 MT/s
Heartbeat CPU 0 instructions: 10000002 cycles: 2500068 heartbeat IPC: 4 cumulative IPC: 4 (Simulation time: 00 hr 00 min 27 sec)
Heartbeat CPU 0 instructions: 20000002 cycles: 5000068 heartbeat IPC: 4 cumulative IPC: 4 (Simulation time: 00 hr 00 min 55 sec)
Warmup finished CPU 0 instructions: 25000002 cycles: 6250069 cumulative IPC: 4 (Simulation time: 00 hr 01 min 09 sec)
Warmup complete CPU 0 instructions: 25000002 cycles: 6250069 cumulative IPC: 4 (Simulation time: 00 hr 01 min 09 sec)
Heartbeat CPU 0 instructions: 30000000 cycles: 21858308 heartbeat IPC: 0.5932 cumulative IPC: 0.3203 (Simulation time: 00 hr 02 min 50 sec)
Heartbeat CPU 0 instructions: 40000001 cycles: 53187726 heartbeat IPC: 0.3192 cumulative IPC: 0.3196 (Simulation time: 00 hr 05 min 50 sec)
Heartbeat CPU 0 instructions: 50000000 cycles: 84367752 heartbeat IPC: 0.3207 cumulative IPC: 0.32 (Simulation time: 00 hr 08 min 28 sec)
Simulation finished CPU 0 instructions: 25000000 cycles: 78117689 cumulative IPC: 0.32 (Simulation time: 00 hr 08 min 28 sec)
Simulation complete CPU 0 instructions: 25000000 cycles: 78117689 cumulative IPC: 0.32 (Simulation time: 00 hr 08 min 28 sec)

ChampSim completed all CPUs

=== Simulation ===
CPU 0 runs ./traces/602.gcc_s-2226B.champsimtrace.xz
Region of Interest Statistics

CPU 0 cumulative IPC: 0.32 instructions: 25000000 cycles: 78117689
CPU 0 Branch Prediction Accuracy: 98.44% MPKI: 5.548 Average ROB Occupancy at Mispredict: 65.88
Branch type MPKI
BRANCH_DIRECT_JUMP: 0.073
BRANCH_INDIRECT: 0
BRANCH_CONDITIONAL: 5.47
BRANCH_DIRECT_CALL: 8e-05
BRANCH_INDIRECT_CALL: 0
BRANCH_RETURN: 0

LLC TOTAL        ACCESS:    4905959 HIT:      37330 MISS:    4868629
LLC LOAD         ACCESS:    1622327 HIT:      20919 MISS:    1601408
LLC RFO          ACCESS:         10 HIT:          0 MISS:         10
LLC PREFETCH     ACCESS:    3274136 HIT:      12651 MISS:    3261485
LLC WRITE        ACCESS:       2762 HIT:       2759 MISS:          3
LLC TRANSLATION  ACCESS:       6724 HIT:       1001 MISS:       5723
LLC PREFETCH REQUESTED:          0 ISSUED:          0 USEFUL:          0 USELESS:          0
LLC AVERAGE MISS LATENCY: 206 cycles
cpu0_DTLB TOTAL        ACCESS:    3488174 HIT:    3143035 MISS:     345139
cpu0_DTLB LOAD         ACCESS:    3488174 HIT:    3143035 MISS:     345139
cpu0_DTLB RFO          ACCESS:          0 HIT:          0 MISS:          0
cpu0_DTLB PREFETCH     ACCESS:          0 HIT:          0 MISS:          0
cpu0_DTLB WRITE        ACCESS:          0 HIT:          0 MISS:          0
cpu0_DTLB TRANSLATION  ACCESS:          0 HIT:          0 MISS:          0
cpu0_DTLB PREFETCH REQUESTED:          0 ISSUED:          0 USEFUL:          0 USELESS:          0
cpu0_DTLB AVERAGE MISS LATENCY: 19.22 cycles
cpu0_ITLB TOTAL        ACCESS:          0 HIT:          0 MISS:          0
cpu0_ITLB LOAD         ACCESS:          0 HIT:          0 MISS:          0
cpu0_ITLB RFO          ACCESS:          0 HIT:          0 MISS:          0
cpu0_ITLB PREFETCH     ACCESS:          0 HIT:          0 MISS:          0
cpu0_ITLB WRITE        ACCESS:          0 HIT:          0 MISS:          0
cpu0_ITLB TRANSLATION  ACCESS:          0 HIT:          0 MISS:          0
cpu0_ITLB PREFETCH REQUESTED:          0 ISSUED:          0 USEFUL:          0 USELESS:          0
cpu0_ITLB AVERAGE MISS LATENCY: -nan cycles
cpu0_L1D TOTAL        ACCESS:    6324917 HIT:    2032298 MISS:    4292619
cpu0_L1D LOAD         ACCESS:    4229720 HIT:     814813 MISS:    3414907
cpu0_L1D RFO          ACCESS:          0 HIT:          0 MISS:          0
cpu0_L1D PREFETCH     ACCESS:    1720135 HIT:     850284 MISS:     869851
cpu0_L1D WRITE        ACCESS:     341679 HIT:     341660 MISS:         19
cpu0_L1D TRANSLATION  ACCESS:      33383 HIT:      25541 MISS:       7842
cpu0_L1D PREFETCH REQUESTED:   53747183 ISSUED:    1720128 USEFUL:      82485 USELESS:      59502
cpu0_L1D AVERAGE MISS LATENCY: 233.5 cycles
cpu0_L1I TOTAL        ACCESS:          0 HIT:          0 MISS:          0
cpu0_L1I LOAD         ACCESS:          0 HIT:          0 MISS:          0
cpu0_L1I RFO          ACCESS:          0 HIT:          0 MISS:          0
cpu0_L1I PREFETCH     ACCESS:          0 HIT:          0 MISS:          0
cpu0_L1I WRITE        ACCESS:          0 HIT:          0 MISS:          0
cpu0_L1I TRANSLATION  ACCESS:          0 HIT:          0 MISS:          0
cpu0_L1I PREFETCH REQUESTED:          0 ISSUED:          0 USEFUL:          0 USELESS:          0
cpu0_L1I AVERAGE MISS LATENCY: -nan cycles
cpu0_L2C TOTAL        ACCESS:    5846051 HIT:     119836 MISS:    5726215
cpu0_L2C LOAD         ACCESS:    1725676 HIT:      59347 MISS:    1666329
cpu0_L2C RFO          ACCESS:         10 HIT:          0 MISS:         10
cpu0_L2C PREFETCH     ACCESS:    4109345 HIT:      56193 MISS:    4053152
cpu0_L2C WRITE        ACCESS:       3200 HIT:       3200 MISS:          0
cpu0_L2C TRANSLATION  ACCESS:       7820 HIT:       1096 MISS:       6724
cpu0_L2C PREFETCH REQUESTED:    3967508 ISSUED:    3967357 USEFUL:      48545 USELESS:       6562
cpu0_L2C AVERAGE MISS LATENCY: 175.8 cycles
cpu0_STLB TOTAL        ACCESS:      33963 HIT:       1260 MISS:      32703
cpu0_STLB LOAD         ACCESS:      33963 HIT:       1260 MISS:      32703
cpu0_STLB RFO          ACCESS:          0 HIT:          0 MISS:          0
cpu0_STLB PREFETCH     ACCESS:          0 HIT:          0 MISS:          0
cpu0_STLB WRITE        ACCESS:          0 HIT:          0 MISS:          0
cpu0_STLB TRANSLATION  ACCESS:          0 HIT:          0 MISS:          0
cpu0_STLB PREFETCH REQUESTED:          0 ISSUED:          0 USEFUL:          0 USELESS:          0
cpu0_STLB AVERAGE MISS LATENCY: 328.4 cycles

DRAM Statistics

Channel 0 RQ ROW_BUFFER_HIT:    1629639
  ROW_BUFFER_MISS:     138856
 AVG DBUS CONGESTED CYCLE: 3.986
WQ ROW_BUFFER_HIT: Channel 0 
  ROW_BUFFER_MISS:        791
  FULL:       1914
