WARNING: physical memory size is smaller than virtual memory size.

*** ChampSim Multicore Out-of-Order Simulator ***
Warmup Instructions: 25000000
Simulation Instructions: 25000000
Number of CPUs: 1
Page size: 4096

Off-chip DRAM Size: 4 GiB Channels: 1 Width: 64-bit Data Race: 800 MT/s
Heartbeat CPU 0 instructions: 10000002 cycles: 2500136 heartbeat IPC: 4 cumulative IPC: 4 (Simulation time: 00 hr 00 min 33 sec)
Heartbeat CPU 0 instructions: 20000003 cycles: 5000151 heartbeat IPC: 4 cumulative IPC: 4 (Simulation time: 00 hr 01 min 05 sec)
Warmup finished CPU 0 instructions: 25000003 cycles: 6250152 cumulative IPC: 4 (Simulation time: 00 hr 01 min 22 sec)
Warmup complete CPU 0 instructions: 25000003 cycles: 6250152 cumulative IPC: 4 (Simulation time: 00 hr 01 min 22 sec)
Heartbeat CPU 0 instructions: 30000000 cycles: 14052167 heartbeat IPC: 1.105 cumulative IPC: 0.6409 (Simulation time: 00 hr 02 min 24 sec)
Heartbeat CPU 0 instructions: 40000001 cycles: 29690047 heartbeat IPC: 0.6395 cumulative IPC: 0.6399 (Simulation time: 00 hr 04 min 31 sec)
Heartbeat CPU 0 instructions: 50000003 cycles: 45304870 heartbeat IPC: 0.6404 cumulative IPC: 0.6401 (Simulation time: 00 hr 06 min 40 sec)
Simulation finished CPU 0 instructions: 25000000 cycles: 39054719 cumulative IPC: 0.6401 (Simulation time: 00 hr 06 min 40 sec)
Simulation complete CPU 0 instructions: 25000000 cycles: 39054719 cumulative IPC: 0.6401 (Simulation time: 00 hr 06 min 40 sec)

ChampSim completed all CPUs

=== Simulation ===
CPU 0 runs ./traces/603.bwaves_s-2609B.champsimtrace.xz
Region of Interest Statistics

CPU 0 cumulative IPC: 0.6401 instructions: 25000000 cycles: 39054719
CPU 0 Branch Prediction Accuracy: 81.23% MPKI: 4.685 Average ROB Occupancy at Mispredict: 300.5
Branch type MPKI
BRANCH_DIRECT_JUMP: 0
BRANCH_INDIRECT: 0
BRANCH_CONDITIONAL: 4.68
BRANCH_DIRECT_CALL: 0
BRANCH_INDIRECT_CALL: 0
BRANCH_RETURN: 0

LLC TOTAL        ACCESS:     503187 HIT:      24449 MISS:     478738
LLC LOAD         ACCESS:     236613 HIT:      10564 MISS:     226049
LLC RFO          ACCESS:      12181 HIT:          0 MISS:      12181
LLC PREFETCH     ACCESS:     242012 HIT:       1564 MISS:     240448
LLC WRITE        ACCESS:      12251 HIT:      12225 MISS:         26
LLC TRANSLATION  ACCESS:        130 HIT:         96 MISS:         34
LLC PREFETCH REQUESTED:          0 ISSUED:          0 USEFUL:          0 USELESS:          0
LLC AVERAGE MISS LATENCY: 1028 cycles
cpu0_DTLB TOTAL        ACCESS:    6671172 HIT:    6647368 MISS:      23804
cpu0_DTLB LOAD         ACCESS:    6671172 HIT:    6647368 MISS:      23804
cpu0_DTLB RFO          ACCESS:          0 HIT:          0 MISS:          0
cpu0_DTLB PREFETCH     ACCESS:          0 HIT:          0 MISS:          0
cpu0_DTLB WRITE        ACCESS:          0 HIT:          0 MISS:          0
cpu0_DTLB TRANSLATION  ACCESS:          0 HIT:          0 MISS:          0
cpu0_DTLB PREFETCH REQUESTED:          0 ISSUED:          0 USEFUL:          0 USELESS:          0
cpu0_DTLB AVERAGE MISS LATENCY: 56.4 cycles
cpu0_ITLB TOTAL        ACCESS:          0 HIT:          0 MISS:          0
cpu0_ITLB LOAD         ACCESS:          0 HIT:          0 MISS:          0
cpu0_ITLB RFO          ACCESS:          0 HIT:          0 MISS:          0
cpu0_ITLB PREFETCH     ACCESS:          0 HIT:          0 MISS:          0
cpu0_ITLB WRITE        ACCESS:          0 HIT:          0 MISS:          0
cpu0_ITLB TRANSLATION  ACCESS:          0 HIT:          0 MISS:          0
cpu0_ITLB PREFETCH REQUESTED:          0 ISSUED:          0 USEFUL:          0 USELESS:          0
cpu0_ITLB AVERAGE MISS LATENCY: -nan cycles
cpu0_L1D TOTAL        ACCESS:    9595038 HIT:    8364986 MISS:    1230052
cpu0_L1D LOAD         ACCESS:    6388149 HIT:    5631153 MISS:     756996
cpu0_L1D RFO          ACCESS:          0 HIT:          0 MISS:          0
cpu0_L1D PREFETCH     ACCESS:    1791094 HIT:    1388459 MISS:     402635
cpu0_L1D WRITE        ACCESS:    1408364 HIT:    1345115 MISS:      63249
cpu0_L1D TRANSLATION  ACCESS:       7431 HIT:        259 MISS:       7172
cpu0_L1D PREFETCH REQUESTED:    9479736 ISSUED:    1791101 USEFUL:     192006 USELESS:       6013
cpu0_L1D AVERAGE MISS LATENCY: 225.1 cycles
cpu0_L1I TOTAL        ACCESS:          0 HIT:          0 MISS:          0
cpu0_L1I LOAD         ACCESS:          0 HIT:          0 MISS:          0
cpu0_L1I RFO          ACCESS:          0 HIT:          0 MISS:          0
cpu0_L1I PREFETCH     ACCESS:          0 HIT:          0 MISS:          0
cpu0_L1I WRITE        ACCESS:          0 HIT:          0 MISS:          0
cpu0_L1I TRANSLATION  ACCESS:          0 HIT:          0 MISS:          0
cpu0_L1I PREFETCH REQUESTED:          0 ISSUED:          0 USEFUL:          0 USELESS:          0
cpu0_L1I AVERAGE MISS LATENCY: -nan cycles
cpu0_L2C TOTAL        ACCESS:     692910 HIT:     111031 MISS:     581879
cpu0_L2C LOAD         ACCESS:     311522 HIT:      46646 MISS:     264876
cpu0_L2C RFO          ACCESS:      14859 HIT:       2677 MISS:      12182
cpu0_L2C PREFETCH     ACCESS:     343054 HIT:      38443 MISS:     304611
cpu0_L2C WRITE        ACCESS:      16303 HIT:      16223 MISS:         80
cpu0_L2C TRANSLATION  ACCESS:       7172 HIT:       7042 MISS:        130
cpu0_L2C PREFETCH REQUESTED:     145028 ISSUED:     145028 USEFUL:      61412 USELESS:      11187
cpu0_L2C AVERAGE MISS LATENCY: 814.7 cycles
cpu0_STLB TOTAL        ACCESS:      13777 HIT:       6360 MISS:       7417
cpu0_STLB LOAD         ACCESS:      13777 HIT:       6360 MISS:       7417
cpu0_STLB RFO          ACCESS:          0 HIT:          0 MISS:          0
cpu0_STLB PREFETCH     ACCESS:          0 HIT:          0 MISS:          0
cpu0_STLB WRITE        ACCESS:          0 HIT:          0 MISS:          0
cpu0_STLB TRANSLATION  ACCESS:          0 HIT:          0 MISS:          0
cpu0_STLB PREFETCH REQUESTED:          0 ISSUED:          0 USEFUL:          0 USELESS:          0
cpu0_STLB AVERAGE MISS LATENCY: 219.4 cycles

DRAM Statistics

Channel 0 RQ ROW_BUFFER_HIT:     339143
  ROW_BUFFER_MISS:     136252
 AVG DBUS CONGESTED CYCLE: 3.758
WQ ROW_BUFFER_HIT: Channel 0 
  ROW_BUFFER_MISS:       1415
  FULL:      10725
