WARNING: physical memory size is smaller than virtual memory size.

*** ChampSim Multicore Out-of-Order Simulator ***
Warmup Instructions: 25000000
Simulation Instructions: 25000000
Number of CPUs: 1
Page size: 4096

Off-chip DRAM Size: 4 GiB Channels: 1 Width: 64-bit Data Race: 800 MT/s
Heartbeat CPU 0 instructions: 10000003 cycles: 2500092 heartbeat IPC: 4 cumulative IPC: 4 (Simulation time: 00 hr 00 min 26 sec)
Heartbeat CPU 0 instructions: 20000003 cycles: 5000092 heartbeat IPC: 4 cumulative IPC: 4 (Simulation time: 00 hr 00 min 53 sec)
Warmup finished CPU 0 instructions: 25000003 cycles: 6250093 cumulative IPC: 4 (Simulation time: 00 hr 01 min 07 sec)
Warmup complete CPU 0 instructions: 25000003 cycles: 6250093 cumulative IPC: 4 (Simulation time: 00 hr 01 min 07 sec)
Heartbeat CPU 0 instructions: 30000003 cycles: 27116049 heartbeat IPC: 0.4522 cumulative IPC: 0.2396 (Simulation time: 00 hr 03 min 24 sec)
Heartbeat CPU 0 instructions: 40000000 cycles: 68885935 heartbeat IPC: 0.2394 cumulative IPC: 0.2395 (Simulation time: 00 hr 08 min 13 sec)
Heartbeat CPU 0 instructions: 50000001 cycles: 86934304 heartbeat IPC: 0.5541 cumulative IPC: 0.3098 (Simulation time: 00 hr 10 min 31 sec)
Simulation finished CPU 0 instructions: 25000002 cycles: 80684213 cumulative IPC: 0.3098 (Simulation time: 00 hr 10 min 31 sec)
Simulation complete CPU 0 instructions: 25000002 cycles: 80684213 cumulative IPC: 0.3098 (Simulation time: 00 hr 10 min 31 sec)

ChampSim completed all CPUs

=== Simulation ===
CPU 0 runs ./traces/603.bwaves_s-891B.champsimtrace.xz
Region of Interest Statistics

CPU 0 cumulative IPC: 0.3098 instructions: 25000002 cycles: 80684213
CPU 0 Branch Prediction Accuracy: 78.12% MPKI: 22.74 Average ROB Occupancy at Mispredict: 295.8
Branch type MPKI
BRANCH_DIRECT_JUMP: 0
BRANCH_INDIRECT: 0
BRANCH_CONDITIONAL: 22.7
BRANCH_DIRECT_CALL: 0
BRANCH_INDIRECT_CALL: 0
BRANCH_RETURN: 0

LLC TOTAL        ACCESS:     843246 HIT:     246302 MISS:     596944
LLC LOAD         ACCESS:      10335 HIT:        211 MISS:      10124
LLC RFO          ACCESS:          1 HIT:          0 MISS:          1
LLC PREFETCH     ACCESS:     586947 HIT:        191 MISS:     586756
LLC WRITE        ACCESS:     245847 HIT:     245819 MISS:         28
LLC TRANSLATION  ACCESS:        116 HIT:         81 MISS:         35
LLC PREFETCH REQUESTED:          0 ISSUED:          0 USEFUL:          0 USELESS:          0
LLC AVERAGE MISS LATENCY: 1572 cycles
cpu0_DTLB TOTAL        ACCESS:    5070545 HIT:    5017924 MISS:      52621
cpu0_DTLB LOAD         ACCESS:    5070545 HIT:    5017924 MISS:      52621
cpu0_DTLB RFO          ACCESS:          0 HIT:          0 MISS:          0
cpu0_DTLB PREFETCH     ACCESS:          0 HIT:          0 MISS:          0
cpu0_DTLB WRITE        ACCESS:          0 HIT:          0 MISS:          0
cpu0_DTLB TRANSLATION  ACCESS:          0 HIT:          0 MISS:          0
cpu0_DTLB PREFETCH REQUESTED:          0 ISSUED:          0 USEFUL:          0 USELESS:          0
cpu0_DTLB AVERAGE MISS LATENCY: 31.16 cycles
cpu0_ITLB TOTAL        ACCESS:          7 HIT:          7 MISS:          0
cpu0_ITLB LOAD         ACCESS:          7 HIT:          7 MISS:          0
cpu0_ITLB RFO          ACCESS:          0 HIT:          0 MISS:          0
cpu0_ITLB PREFETCH     ACCESS:          0 HIT:          0 MISS:          0
cpu0_ITLB WRITE        ACCESS:          0 HIT:          0 MISS:          0
cpu0_ITLB TRANSLATION  ACCESS:          0 HIT:          0 MISS:          0
cpu0_ITLB PREFETCH REQUESTED:          0 ISSUED:          0 USEFUL:          0 USELESS:          0
cpu0_ITLB AVERAGE MISS LATENCY: -nan cycles
cpu0_L1D TOTAL        ACCESS:    9229212 HIT:    3358058 MISS:    5871154
cpu0_L1D LOAD         ACCESS:    3945743 HIT:    1117991 MISS:    2827752
cpu0_L1D RFO          ACCESS:          0 HIT:          0 MISS:          0
cpu0_L1D PREFETCH     ACCESS:    3924996 HIT:     882103 MISS:    3042893
cpu0_L1D WRITE        ACCESS:    1349130 HIT:    1348788 MISS:        342
cpu0_L1D TRANSLATION  ACCESS:       9343 HIT:       9176 MISS:        167
cpu0_L1D PREFETCH REQUESTED:    3950258 ISSUED:    3924993 USEFUL:     581761 USELESS:        240
cpu0_L1D AVERAGE MISS LATENCY: 102.4 cycles
cpu0_L1I TOTAL        ACCESS:          9 HIT:          3 MISS:          6
cpu0_L1I LOAD         ACCESS:          9 HIT:          3 MISS:          6
cpu0_L1I RFO          ACCESS:          0 HIT:          0 MISS:          0
cpu0_L1I PREFETCH     ACCESS:          0 HIT:          0 MISS:          0
cpu0_L1I WRITE        ACCESS:          0 HIT:          0 MISS:          0
cpu0_L1I TRANSLATION  ACCESS:          0 HIT:          0 MISS:          0
cpu0_L1I PREFETCH REQUESTED:          0 ISSUED:          0 USEFUL:          0 USELESS:          0
cpu0_L1I AVERAGE MISS LATENCY: 225 cycles
cpu0_L2C TOTAL        ACCESS:    1138718 HIT:     244848 MISS:     893870
cpu0_L2C LOAD         ACCESS:      15475 HIT:        208 MISS:      15267
cpu0_L2C RFO          ACCESS:        215 HIT:        214 MISS:          1
cpu0_L2C PREFETCH     ACCESS:     878591 HIT:        285 MISS:     878306
cpu0_L2C WRITE        ACCESS:     244270 HIT:     244090 MISS:        180
cpu0_L2C TRANSLATION  ACCESS:        167 HIT:         51 MISS:        116
cpu0_L2C PREFETCH REQUESTED:     296591 ISSUED:     296591 USEFUL:       6076 USELESS:      96285
cpu0_L2C AVERAGE MISS LATENCY: 1063 cycles
cpu0_STLB TOTAL        ACCESS:       9351 HIT:         26 MISS:       9325
cpu0_STLB LOAD         ACCESS:       9351 HIT:         26 MISS:       9325
cpu0_STLB RFO          ACCESS:          0 HIT:          0 MISS:          0
cpu0_STLB PREFETCH     ACCESS:          0 HIT:          0 MISS:          0
cpu0_STLB WRITE        ACCESS:          0 HIT:          0 MISS:          0
cpu0_STLB TRANSLATION  ACCESS:          0 HIT:          0 MISS:          0
cpu0_STLB PREFETCH REQUESTED:          0 ISSUED:          0 USEFUL:          0 USELESS:          0
cpu0_STLB AVERAGE MISS LATENCY: 210.9 cycles

DRAM Statistics

Channel 0 RQ ROW_BUFFER_HIT:     422436
  ROW_BUFFER_MISS:     174473
 AVG DBUS CONGESTED CYCLE: 3.96
WQ ROW_BUFFER_HIT: Channel 0 
  ROW_BUFFER_MISS:     116006
  FULL:     143919
