WARNING: physical memory size is smaller than virtual memory size.

*** ChampSim Multicore Out-of-Order Simulator ***
Warmup Instructions: 25000000
Simulation Instructions: 25000000
Number of CPUs: 1
Page size: 4096

Off-chip DRAM Size: 4 GiB Channels: 1 Width: 64-bit Data Race: 800 MT/s
Heartbeat CPU 0 instructions: 10000000 cycles: 3099484 heartbeat IPC: 3.226 cumulative IPC: 3.226 (Simulation time: 00 hr 00 min 31 sec)
Heartbeat CPU 0 instructions: 20000003 cycles: 6152880 heartbeat IPC: 3.275 cumulative IPC: 3.251 (Simulation time: 00 hr 01 min 03 sec)
Warmup finished CPU 0 instructions: 25000001 cycles: 7641568 cumulative IPC: 3.272 (Simulation time: 00 hr 01 min 19 sec)
Warmup complete CPU 0 instructions: 25000001 cycles: 7641568 cumulative IPC: 3.272 (Simulation time: 00 hr 01 min 19 sec)
Heartbeat CPU 0 instructions: 30000000 cycles: 17097673 heartbeat IPC: 0.9137 cumulative IPC: 0.5288 (Simulation time: 00 hr 02 min 18 sec)
Heartbeat CPU 0 instructions: 40000000 cycles: 36103889 heartbeat IPC: 0.5261 cumulative IPC: 0.527 (Simulation time: 00 hr 04 min 10 sec)
Heartbeat CPU 0 instructions: 50000000 cycles: 60273396 heartbeat IPC: 0.4137 cumulative IPC: 0.475 (Simulation time: 00 hr 06 min 31 sec)
Simulation finished CPU 0 instructions: 25000003 cycles: 52631830 cumulative IPC: 0.475 (Simulation time: 00 hr 06 min 31 sec)
Simulation complete CPU 0 instructions: 25000003 cycles: 52631830 cumulative IPC: 0.475 (Simulation time: 00 hr 06 min 31 sec)

ChampSim completed all CPUs

=== Simulation ===
CPU 0 runs ./traces/605.mcf_s-484B.champsimtrace.xz
Region of Interest Statistics

CPU 0 cumulative IPC: 0.475 instructions: 25000003 cycles: 52631830
CPU 0 Branch Prediction Accuracy: 96.99% MPKI: 2.864 Average ROB Occupancy at Mispredict: 78.94
Branch type MPKI
BRANCH_DIRECT_JUMP: 0
BRANCH_INDIRECT: 0
BRANCH_CONDITIONAL: 2.86
BRANCH_DIRECT_CALL: 0
BRANCH_INDIRECT_CALL: 0
BRANCH_RETURN: 0

LLC TOTAL        ACCESS:     899744 HIT:     174133 MISS:     725611
LLC LOAD         ACCESS:     407762 HIT:      21012 MISS:     386750
LLC RFO          ACCESS:      47379 HIT:         42 MISS:      47337
LLC PREFETCH     ACCESS:     298080 HIT:       8320 MISS:     289760
LLC WRITE        ACCESS:     143240 HIT:     142992 MISS:        248
LLC TRANSLATION  ACCESS:       3283 HIT:       1767 MISS:       1516
LLC PREFETCH REQUESTED:          0 ISSUED:          0 USEFUL:          0 USELESS:          0
LLC AVERAGE MISS LATENCY: 701.4 cycles
cpu0_DTLB TOTAL        ACCESS:    7874235 HIT:    7760096 MISS:     114139
cpu0_DTLB LOAD         ACCESS:    7874235 HIT:    7760096 MISS:     114139
cpu0_DTLB RFO          ACCESS:          0 HIT:          0 MISS:          0
cpu0_DTLB PREFETCH     ACCESS:          0 HIT:          0 MISS:          0
cpu0_DTLB WRITE        ACCESS:          0 HIT:          0 MISS:          0
cpu0_DTLB TRANSLATION  ACCESS:          0 HIT:          0 MISS:          0
cpu0_DTLB PREFETCH REQUESTED:          0 ISSUED:          0 USEFUL:          0 USELESS:          0
cpu0_DTLB AVERAGE MISS LATENCY: 29.33 cycles
cpu0_ITLB TOTAL        ACCESS:          0 HIT:          0 MISS:          0
cpu0_ITLB LOAD         ACCESS:          0 HIT:          0 MISS:          0
cpu0_ITLB RFO          ACCESS:          0 HIT:          0 MISS:          0
cpu0_ITLB PREFETCH     ACCESS:          0 HIT:          0 MISS:          0
cpu0_ITLB WRITE        ACCESS:          0 HIT:          0 MISS:          0
cpu0_ITLB TRANSLATION  ACCESS:          0 HIT:          0 MISS:          0
cpu0_ITLB PREFETCH REQUESTED:          0 ISSUED:          0 USEFUL:          0 USELESS:          0
cpu0_ITLB AVERAGE MISS LATENCY: -nan cycles
cpu0_L1D TOTAL        ACCESS:   13386254 HIT:   12481841 MISS:     904413
cpu0_L1D LOAD         ACCESS:    4614716 HIT:    4098813 MISS:     515903
cpu0_L1D RFO          ACCESS:          0 HIT:          0 MISS:          0
cpu0_L1D PREFETCH     ACCESS:    1558173 HIT:    1396738 MISS:     161435
cpu0_L1D WRITE        ACCESS:    7198080 HIT:    6979704 MISS:     218376
cpu0_L1D TRANSLATION  ACCESS:      15285 HIT:       6586 MISS:       8699
cpu0_L1D PREFETCH REQUESTED:   19009908 ISSUED:    1558171 USEFUL:      12651 USELESS:      73718
cpu0_L1D AVERAGE MISS LATENCY: 451.1 cycles
cpu0_L1I TOTAL        ACCESS:          0 HIT:          0 MISS:          0
cpu0_L1I LOAD         ACCESS:          0 HIT:          0 MISS:          0
cpu0_L1I RFO          ACCESS:          0 HIT:          0 MISS:          0
cpu0_L1I PREFETCH     ACCESS:          0 HIT:          0 MISS:          0
cpu0_L1I WRITE        ACCESS:          0 HIT:          0 MISS:          0
cpu0_L1I TRANSLATION  ACCESS:          0 HIT:          0 MISS:          0
cpu0_L1I PREFETCH REQUESTED:          0 ISSUED:          0 USEFUL:          0 USELESS:          0
cpu0_L1I AVERAGE MISS LATENCY: -nan cycles
cpu0_L2C TOTAL        ACCESS:    1053587 HIT:     274044 MISS:     779543
cpu0_L2C LOAD         ACCESS:     482568 HIT:      63580 MISS:     418988
cpu0_L2C RFO          ACCESS:      49401 HIT:       2022 MISS:      47379
cpu0_L2C PREFETCH     ACCESS:     353450 HIT:      44243 MISS:     309207
cpu0_L2C WRITE        ACCESS:     159469 HIT:     158783 MISS:        686
cpu0_L2C TRANSLATION  ACCESS:       8699 HIT:       5416 MISS:       3283
cpu0_L2C PREFETCH REQUESTED:     267005 ISSUED:     267005 USEFUL:      71110 USELESS:       8098
cpu0_L2C AVERAGE MISS LATENCY: 573.5 cycles
cpu0_STLB TOTAL        ACCESS:      54665 HIT:      39406 MISS:      15259
cpu0_STLB LOAD         ACCESS:      54665 HIT:      39406 MISS:      15259
cpu0_STLB RFO          ACCESS:          0 HIT:          0 MISS:          0
cpu0_STLB PREFETCH     ACCESS:          0 HIT:          0 MISS:          0
cpu0_STLB WRITE        ACCESS:          0 HIT:          0 MISS:          0
cpu0_STLB TRANSLATION  ACCESS:          0 HIT:          0 MISS:          0
cpu0_STLB PREFETCH REQUESTED:          0 ISSUED:          0 USEFUL:          0 USELESS:          0
cpu0_STLB AVERAGE MISS LATENCY: 322.9 cycles

DRAM Statistics

Channel 0 RQ ROW_BUFFER_HIT:     279168
  ROW_BUFFER_MISS:     345662
 AVG DBUS CONGESTED CYCLE: 3.919
WQ ROW_BUFFER_HIT: Channel 0 
  ROW_BUFFER_MISS:       7149
  FULL:     125319
