WARNING: physical memory size is smaller than virtual memory size.

*** ChampSim Multicore Out-of-Order Simulator ***
Warmup Instructions: 25000000
Simulation Instructions: 25000000
Number of CPUs: 1
Page size: 4096

Off-chip DRAM Size: 4 GiB Channels: 1 Width: 64-bit Data Race: 800 MT/s
Heartbeat CPU 0 instructions: 10000003 cycles: 2500090 heartbeat IPC: 4 cumulative IPC: 4 (Simulation time: 00 hr 00 min 35 sec)
Heartbeat CPU 0 instructions: 20000003 cycles: 5000090 heartbeat IPC: 4 cumulative IPC: 4 (Simulation time: 00 hr 01 min 09 sec)
Warmup finished CPU 0 instructions: 25000003 cycles: 6250091 cumulative IPC: 4 (Simulation time: 00 hr 01 min 26 sec)
Warmup complete CPU 0 instructions: 25000003 cycles: 6250091 cumulative IPC: 4 (Simulation time: 00 hr 01 min 26 sec)
Heartbeat CPU 0 instructions: 30000002 cycles: 30493062 heartbeat IPC: 0.3923 cumulative IPC: 0.2062 (Simulation time: 00 hr 03 min 56 sec)
Heartbeat CPU 0 instructions: 40000002 cycles: 80513489 heartbeat IPC: 0.1999 cumulative IPC: 0.202 (Simulation time: 00 hr 08 min 14 sec)
Heartbeat CPU 0 instructions: 50000002 cycles: 128988506 heartbeat IPC: 0.2063 cumulative IPC: 0.2037 (Simulation time: 00 hr 11 min 15 sec)
Simulation finished CPU 0 instructions: 25000003 cycles: 122738417 cumulative IPC: 0.2037 (Simulation time: 00 hr 11 min 15 sec)
Simulation complete CPU 0 instructions: 25000003 cycles: 122738417 cumulative IPC: 0.2037 (Simulation time: 00 hr 11 min 15 sec)

ChampSim completed all CPUs

=== Simulation ===
CPU 0 runs ./traces/605.mcf_s-1536B.champsimtrace.xz
Region of Interest Statistics

CPU 0 cumulative IPC: 0.2037 instructions: 25000003 cycles: 122738417
CPU 0 Branch Prediction Accuracy: 99.97% MPKI: 0.0528 Average ROB Occupancy at Mispredict: 295
Branch type MPKI
BRANCH_DIRECT_JUMP: 0
BRANCH_INDIRECT: 0
BRANCH_CONDITIONAL: 0.0528
BRANCH_DIRECT_CALL: 0
BRANCH_INDIRECT_CALL: 0
BRANCH_RETURN: 0

LLC TOTAL        ACCESS:    2863181 HIT:    1750872 MISS:    1112309
LLC LOAD         ACCESS:     931684 HIT:     832342 MISS:      99342
LLC RFO          ACCESS:      69359 HIT:      69359 MISS:          0
LLC PREFETCH     ACCESS:     742361 HIT:     174830 MISS:     567531
LLC WRITE        ACCESS:     554534 HIT:     554534 MISS:          0
LLC TRANSLATION  ACCESS:     565243 HIT:     119807 MISS:     445436
LLC PREFETCH REQUESTED:          0 ISSUED:          0 USEFUL:          0 USELESS:          0
LLC AVERAGE MISS LATENCY: 1077 cycles
cpu0_DTLB TOTAL        ACCESS:    4320219 HIT:    2900110 MISS:    1420109
cpu0_DTLB LOAD         ACCESS:    4320219 HIT:    2900110 MISS:    1420109
cpu0_DTLB RFO          ACCESS:          0 HIT:          0 MISS:          0
cpu0_DTLB PREFETCH     ACCESS:          0 HIT:          0 MISS:          0
cpu0_DTLB WRITE        ACCESS:          0 HIT:          0 MISS:          0
cpu0_DTLB TRANSLATION  ACCESS:          0 HIT:          0 MISS:          0
cpu0_DTLB PREFETCH REQUESTED:          0 ISSUED:          0 USEFUL:          0 USELESS:          0
cpu0_DTLB AVERAGE MISS LATENCY: 359.1 cycles
cpu0_ITLB TOTAL        ACCESS:          0 HIT:          0 MISS:          0
cpu0_ITLB LOAD         ACCESS:          0 HIT:          0 MISS:          0
cpu0_ITLB RFO          ACCESS:          0 HIT:          0 MISS:          0
cpu0_ITLB PREFETCH     ACCESS:          0 HIT:          0 MISS:          0
cpu0_ITLB WRITE        ACCESS:          0 HIT:          0 MISS:          0
cpu0_ITLB TRANSLATION  ACCESS:          0 HIT:          0 MISS:          0
cpu0_ITLB PREFETCH REQUESTED:          0 ISSUED:          0 USEFUL:          0 USELESS:          0
cpu0_ITLB AVERAGE MISS LATENCY: -nan cycles
cpu0_L1D TOTAL        ACCESS:   10017383 HIT:    5331153 MISS:    4686230
cpu0_L1D LOAD         ACCESS:    4134737 HIT:    2160941 MISS:    1973796
cpu0_L1D RFO          ACCESS:          0 HIT:          0 MISS:          0
cpu0_L1D PREFETCH     ACCESS:    4180124 HIT:    2139119 MISS:    2041005
cpu0_L1D WRITE        ACCESS:    1034525 HIT:     957969 MISS:      76556
cpu0_L1D TRANSLATION  ACCESS:     667997 HIT:      73124 MISS:     594873
cpu0_L1D PREFETCH REQUESTED:    5454645 ISSUED:    4180123 USEFUL:       3305 USELESS:     953500
cpu0_L1D AVERAGE MISS LATENCY: 270 cycles
cpu0_L1I TOTAL        ACCESS:          0 HIT:          0 MISS:          0
cpu0_L1I LOAD         ACCESS:          0 HIT:          0 MISS:          0
cpu0_L1I RFO          ACCESS:          0 HIT:          0 MISS:          0
cpu0_L1I PREFETCH     ACCESS:          0 HIT:          0 MISS:          0
cpu0_L1I WRITE        ACCESS:          0 HIT:          0 MISS:          0
cpu0_L1I TRANSLATION  ACCESS:          0 HIT:          0 MISS:          0
cpu0_L1I PREFETCH REQUESTED:          0 ISSUED:          0 USEFUL:          0 USELESS:          0
cpu0_L1I AVERAGE MISS LATENCY: -nan cycles
cpu0_L2C TOTAL        ACCESS:    3518217 HIT:    1202474 MISS:    2315743
cpu0_L2C LOAD         ACCESS:    1233828 HIT:     300171 MISS:     933657
cpu0_L2C RFO          ACCESS:      76104 HIT:       6745 MISS:      69359
cpu0_L2C PREFETCH     ACCESS:    1054123 HIT:     306641 MISS:     747482
cpu0_L2C WRITE        ACCESS:     561109 HIT:     561108 MISS:          1
cpu0_L2C TRANSLATION  ACCESS:     593053 HIT:      27809 MISS:     565244
cpu0_L2C PREFETCH REQUESTED:      97326 ISSUED:      97326 USEFUL:      20967 USELESS:      27159
cpu0_L2C AVERAGE MISS LATENCY: 536.9 cycles
cpu0_STLB TOTAL        ACCESS:     663766 HIT:     101739 MISS:     562027
cpu0_STLB LOAD         ACCESS:     663766 HIT:     101739 MISS:     562027
cpu0_STLB RFO          ACCESS:          0 HIT:          0 MISS:          0
cpu0_STLB PREFETCH     ACCESS:          0 HIT:          0 MISS:          0
cpu0_STLB WRITE        ACCESS:          0 HIT:          0 MISS:          0
cpu0_STLB TRANSLATION  ACCESS:          0 HIT:          0 MISS:          0
cpu0_STLB PREFETCH REQUESTED:          0 ISSUED:          0 USEFUL:          0 USELESS:          0
cpu0_STLB AVERAGE MISS LATENCY: 908.7 cycles

DRAM Statistics

Channel 0 RQ ROW_BUFFER_HIT:      70362
  ROW_BUFFER_MISS:    1041568
 AVG DBUS CONGESTED CYCLE: 3.973
WQ ROW_BUFFER_HIT: Channel 0 
  ROW_BUFFER_MISS:       1701
  FULL:     553255
