WARNING: physical memory size is smaller than virtual memory size.

*** ChampSim Multicore Out-of-Order Simulator ***
Warmup Instructions: 25000000
Simulation Instructions: 25000000
Number of CPUs: 1
Page size: 4096

Off-chip DRAM Size: 4 GiB Channels: 1 Width: 64-bit Data Race: 800 MT/s
Heartbeat CPU 0 instructions: 10000003 cycles: 2591247 heartbeat IPC: 3.859 cumulative IPC: 3.859 (Simulation time: 00 hr 00 min 29 sec)
Heartbeat CPU 0 instructions: 20000003 cycles: 5188438 heartbeat IPC: 3.85 cumulative IPC: 3.855 (Simulation time: 00 hr 00 min 59 sec)
Warmup finished CPU 0 instructions: 25000000 cycles: 6487077 cumulative IPC: 3.854 (Simulation time: 00 hr 01 min 14 sec)
Warmup complete CPU 0 instructions: 25000000 cycles: 6487077 cumulative IPC: 3.854 (Simulation time: 00 hr 01 min 14 sec)
Heartbeat CPU 0 instructions: 30000000 cycles: 18459730 heartbeat IPC: 0.7535 cumulative IPC: 0.4176 (Simulation time: 00 hr 02 min 16 sec)
Heartbeat CPU 0 instructions: 40000001 cycles: 42190573 heartbeat IPC: 0.4214 cumulative IPC: 0.4201 (Simulation time: 00 hr 04 min 19 sec)
Heartbeat CPU 0 instructions: 50000001 cycles: 64930565 heartbeat IPC: 0.4398 cumulative IPC: 0.4278 (Simulation time: 00 hr 06 min 16 sec)
Simulation finished CPU 0 instructions: 25000001 cycles: 58443489 cumulative IPC: 0.4278 (Simulation time: 00 hr 06 min 16 sec)
Simulation complete CPU 0 instructions: 25000001 cycles: 58443489 cumulative IPC: 0.4278 (Simulation time: 00 hr 06 min 16 sec)

ChampSim completed all CPUs

=== Simulation ===
CPU 0 runs ./traces/605.mcf_s-665B.champsimtrace.xz
Region of Interest Statistics

CPU 0 cumulative IPC: 0.4278 instructions: 25000001 cycles: 58443489
CPU 0 Branch Prediction Accuracy: 85.71% MPKI: 35.61 Average ROB Occupancy at Mispredict: 11.81
Branch type MPKI
BRANCH_DIRECT_JUMP: 0.211
BRANCH_INDIRECT: 0
BRANCH_CONDITIONAL: 35.4
BRANCH_DIRECT_CALL: 0
BRANCH_INDIRECT_CALL: 0.00512
BRANCH_RETURN: 0

LLC TOTAL        ACCESS:    1304634 HIT:     872069 MISS:     432565
LLC LOAD         ACCESS:     501799 HIT:     349232 MISS:     152567
LLC RFO          ACCESS:      80168 HIT:      79610 MISS:        558
LLC PREFETCH     ACCESS:     613934 HIT:     335981 MISS:     277953
LLC WRITE        ACCESS:     105526 HIT:     105488 MISS:         38
LLC TRANSLATION  ACCESS:       3207 HIT:       1758 MISS:       1449
LLC PREFETCH REQUESTED:          0 ISSUED:          0 USEFUL:          0 USELESS:          0
LLC AVERAGE MISS LATENCY: 296.2 cycles
cpu0_DTLB TOTAL        ACCESS:    7781188 HIT:    7246496 MISS:     534692
cpu0_DTLB LOAD         ACCESS:    7781188 HIT:    7246496 MISS:     534692
cpu0_DTLB RFO          ACCESS:          0 HIT:          0 MISS:          0
cpu0_DTLB PREFETCH     ACCESS:          0 HIT:          0 MISS:          0
cpu0_DTLB WRITE        ACCESS:          0 HIT:          0 MISS:          0
cpu0_DTLB TRANSLATION  ACCESS:          0 HIT:          0 MISS:          0
cpu0_DTLB PREFETCH REQUESTED:          0 ISSUED:          0 USEFUL:          0 USELESS:          0
cpu0_DTLB AVERAGE MISS LATENCY: 8.691 cycles
cpu0_ITLB TOTAL        ACCESS:      10093 HIT:      10093 MISS:          0
cpu0_ITLB LOAD         ACCESS:      10093 HIT:      10093 MISS:          0
cpu0_ITLB RFO          ACCESS:          0 HIT:          0 MISS:          0
cpu0_ITLB PREFETCH     ACCESS:          0 HIT:          0 MISS:          0
cpu0_ITLB WRITE        ACCESS:          0 HIT:          0 MISS:          0
cpu0_ITLB TRANSLATION  ACCESS:          0 HIT:          0 MISS:          0
cpu0_ITLB PREFETCH REQUESTED:          0 ISSUED:          0 USEFUL:          0 USELESS:          0
cpu0_ITLB AVERAGE MISS LATENCY: -nan cycles
cpu0_L1D TOTAL        ACCESS:   16102205 HIT:   13501700 MISS:    2600505
cpu0_L1D LOAD         ACCESS:    7060881 HIT:    5969402 MISS:    1091479
cpu0_L1D RFO          ACCESS:          0 HIT:          0 MISS:          0
cpu0_L1D PREFETCH     ACCESS:    6161698 HIT:    4956846 MISS:    1204852
cpu0_L1D WRITE        ACCESS:    2872980 HIT:    2573068 MISS:     299912
cpu0_L1D TRANSLATION  ACCESS:       6646 HIT:       2384 MISS:       4262
cpu0_L1D PREFETCH REQUESTED:    7170127 ISSUED:    6161690 USEFUL:     205850 USELESS:     584501
cpu0_L1D AVERAGE MISS LATENCY: 57 cycles
cpu0_L1I TOTAL        ACCESS:      11241 HIT:      11241 MISS:          0
cpu0_L1I LOAD         ACCESS:      11241 HIT:      11241 MISS:          0
cpu0_L1I RFO          ACCESS:          0 HIT:          0 MISS:          0
cpu0_L1I PREFETCH     ACCESS:          0 HIT:          0 MISS:          0
cpu0_L1I WRITE        ACCESS:          0 HIT:          0 MISS:          0
cpu0_L1I TRANSLATION  ACCESS:          0 HIT:          0 MISS:          0
cpu0_L1I PREFETCH REQUESTED:          0 ISSUED:          0 USEFUL:          0 USELESS:          0
cpu0_L1I AVERAGE MISS LATENCY: -nan cycles
cpu0_L2C TOTAL        ACCESS:    1950088 HIT:     724684 MISS:    1225404
cpu0_L2C LOAD         ACCESS:     811048 HIT:     304730 MISS:     506318
cpu0_L2C RFO          ACCESS:     104311 HIT:      24143 MISS:      80168
cpu0_L2C PREFETCH     ACCESS:     878999 HIT:     243461 MISS:     635538
cpu0_L2C WRITE        ACCESS:     151469 HIT:     151296 MISS:        173
cpu0_L2C TRANSLATION  ACCESS:       4261 HIT:       1054 MISS:       3207
cpu0_L2C PREFETCH REQUESTED:      88604 ISSUED:      88604 USEFUL:      31156 USELESS:       7306
cpu0_L2C AVERAGE MISS LATENCY: 123.1 cycles
cpu0_STLB TOTAL        ACCESS:     444549 HIT:     437939 MISS:       6610
cpu0_STLB LOAD         ACCESS:     444549 HIT:     437939 MISS:       6610
cpu0_STLB RFO          ACCESS:          0 HIT:          0 MISS:          0
cpu0_STLB PREFETCH     ACCESS:          0 HIT:          0 MISS:          0
cpu0_STLB WRITE        ACCESS:          0 HIT:          0 MISS:          0
cpu0_STLB TRANSLATION  ACCESS:          0 HIT:          0 MISS:          0
cpu0_STLB PREFETCH REQUESTED:          0 ISSUED:          0 USEFUL:          0 USELESS:          0
cpu0_STLB AVERAGE MISS LATENCY: 196.4 cycles

DRAM Statistics

Channel 0 RQ ROW_BUFFER_HIT:      81907
  ROW_BUFFER_MISS:     349446
 AVG DBUS CONGESTED CYCLE: 3.868
WQ ROW_BUFFER_HIT: Channel 0 
  ROW_BUFFER_MISS:       1305
  FULL:       1611
