WARNING: physical memory size is smaller than virtual memory size.

*** ChampSim Multicore Out-of-Order Simulator ***
Warmup Instructions: 25000000
Simulation Instructions: 25000000
Number of CPUs: 1
Page size: 4096

Off-chip DRAM Size: 4 GiB Channels: 1 Width: 64-bit Data Race: 800 MT/s
Heartbeat CPU 0 instructions: 10000003 cycles: 2500792 heartbeat IPC: 3.999 cumulative IPC: 3.999 (Simulation time: 00 hr 00 min 29 sec)
Heartbeat CPU 0 instructions: 20000002 cycles: 5001202 heartbeat IPC: 3.999 cumulative IPC: 3.999 (Simulation time: 00 hr 00 min 59 sec)
Warmup finished CPU 0 instructions: 25000000 cycles: 6254233 cumulative IPC: 3.997 (Simulation time: 00 hr 01 min 14 sec)
Warmup complete CPU 0 instructions: 25000000 cycles: 6254233 cumulative IPC: 3.997 (Simulation time: 00 hr 01 min 14 sec)
Heartbeat CPU 0 instructions: 30000000 cycles: 24194523 heartbeat IPC: 0.521 cumulative IPC: 0.2787 (Simulation time: 00 hr 02 min 42 sec)
Heartbeat CPU 0 instructions: 40000001 cycles: 46551652 heartbeat IPC: 0.4473 cumulative IPC: 0.3722 (Simulation time: 00 hr 04 min 38 sec)
Heartbeat CPU 0 instructions: 50000000 cycles: 151811623 heartbeat IPC: 0.095 cumulative IPC: 0.1718 (Simulation time: 00 hr 12 min 08 sec)
Simulation finished CPU 0 instructions: 25000000 cycles: 145557391 cumulative IPC: 0.1718 (Simulation time: 00 hr 12 min 08 sec)
Simulation complete CPU 0 instructions: 25000000 cycles: 145557391 cumulative IPC: 0.1718 (Simulation time: 00 hr 12 min 08 sec)

ChampSim completed all CPUs

=== Simulation ===
CPU 0 runs ./traces/605.mcf_s-994B.champsimtrace.xz
Region of Interest Statistics

CPU 0 cumulative IPC: 0.1718 instructions: 25000000 cycles: 145557391
CPU 0 Branch Prediction Accuracy: 91.07% MPKI: 22.99 Average ROB Occupancy at Mispredict: 31.81
Branch type MPKI
BRANCH_DIRECT_JUMP: 0.125
BRANCH_INDIRECT: 0
BRANCH_CONDITIONAL: 22.9
BRANCH_DIRECT_CALL: 0
BRANCH_INDIRECT_CALL: 0.00236
BRANCH_RETURN: 4e-05

LLC TOTAL        ACCESS:    1513453 HIT:     398988 MISS:    1114465
LLC LOAD         ACCESS:     724061 HIT:     203984 MISS:     520077
LLC RFO          ACCESS:       1897 HIT:       1535 MISS:        362
LLC PREFETCH     ACCESS:     495876 HIT:     108873 MISS:     387003
LLC WRITE        ACCESS:      59235 HIT:      59202 MISS:         33
LLC TRANSLATION  ACCESS:     232384 HIT:      25394 MISS:     206990
LLC PREFETCH REQUESTED:          0 ISSUED:          0 USEFUL:          0 USELESS:          0
LLC AVERAGE MISS LATENCY: 295.5 cycles
cpu0_DTLB TOTAL        ACCESS:    7594519 HIT:    7131002 MISS:     463517
cpu0_DTLB LOAD         ACCESS:    7594519 HIT:    7131002 MISS:     463517
cpu0_DTLB RFO          ACCESS:          0 HIT:          0 MISS:          0
cpu0_DTLB PREFETCH     ACCESS:          0 HIT:          0 MISS:          0
cpu0_DTLB WRITE        ACCESS:          0 HIT:          0 MISS:          0
cpu0_DTLB TRANSLATION  ACCESS:          0 HIT:          0 MISS:          0
cpu0_DTLB PREFETCH REQUESTED:          0 ISSUED:          0 USEFUL:          0 USELESS:          0
cpu0_DTLB AVERAGE MISS LATENCY: 231.6 cycles
cpu0_ITLB TOTAL        ACCESS:       2013 HIT:       2013 MISS:          0
cpu0_ITLB LOAD         ACCESS:       2013 HIT:       2013 MISS:          0
cpu0_ITLB RFO          ACCESS:          0 HIT:          0 MISS:          0
cpu0_ITLB PREFETCH     ACCESS:          0 HIT:          0 MISS:          0
cpu0_ITLB WRITE        ACCESS:          0 HIT:          0 MISS:          0
cpu0_ITLB TRANSLATION  ACCESS:          0 HIT:          0 MISS:          0
cpu0_ITLB PREFETCH REQUESTED:          0 ISSUED:          0 USEFUL:          0 USELESS:          0
cpu0_ITLB AVERAGE MISS LATENCY: -nan cycles
cpu0_L1D TOTAL        ACCESS:   15683852 HIT:   13470454 MISS:    2213398
cpu0_L1D LOAD         ACCESS:    7123965 HIT:    6110205 MISS:    1013760
cpu0_L1D RFO          ACCESS:          0 HIT:          0 MISS:          0
cpu0_L1D PREFETCH     ACCESS:    5639128 HIT:    4795962 MISS:     843166
cpu0_L1D WRITE        ACCESS:    2522878 HIT:    2482525 MISS:      40353
cpu0_L1D TRANSLATION  ACCESS:     397881 HIT:      81762 MISS:     316119
cpu0_L1D PREFETCH REQUESTED:    7394207 ISSUED:    5639126 USEFUL:      48407 USELESS:     515123
cpu0_L1D AVERAGE MISS LATENCY: 168.5 cycles
cpu0_L1I TOTAL        ACCESS:       2013 HIT:       2013 MISS:          0
cpu0_L1I LOAD         ACCESS:       2013 HIT:       2013 MISS:          0
cpu0_L1I RFO          ACCESS:          0 HIT:          0 MISS:          0
cpu0_L1I PREFETCH     ACCESS:          0 HIT:          0 MISS:          0
cpu0_L1I WRITE        ACCESS:          0 HIT:          0 MISS:          0
cpu0_L1I TRANSLATION  ACCESS:          0 HIT:          0 MISS:          0
cpu0_L1I PREFETCH REQUESTED:          0 ISSUED:          0 USEFUL:          0 USELESS:          0
cpu0_L1I AVERAGE MISS LATENCY: -nan cycles
cpu0_L2C TOTAL        ACCESS:    2026747 HIT:     572132 MISS:    1454615
cpu0_L2C LOAD         ACCESS:     975974 HIT:     251899 MISS:     724075
cpu0_L2C RFO          ACCESS:      10690 HIT:       8793 MISS:       1897
cpu0_L2C PREFETCH     ACCESS:     642917 HIT:     146871 MISS:     496046
cpu0_L2C WRITE        ACCESS:      81371 HIT:      81157 MISS:        214
cpu0_L2C TRANSLATION  ACCESS:     315795 HIT:      83412 MISS:     232383
cpu0_L2C PREFETCH REQUESTED:      79300 ISSUED:      79300 USEFUL:      24295 USELESS:        322
cpu0_L2C AVERAGE MISS LATENCY: 247.1 cycles
cpu0_STLB TOTAL        ACCESS:     396870 HIT:     160092 MISS:     236778
cpu0_STLB LOAD         ACCESS:     396870 HIT:     160092 MISS:     236778
cpu0_STLB RFO          ACCESS:          0 HIT:          0 MISS:          0
cpu0_STLB PREFETCH     ACCESS:          0 HIT:          0 MISS:          0
cpu0_STLB WRITE        ACCESS:          0 HIT:          0 MISS:          0
cpu0_STLB TRANSLATION  ACCESS:          0 HIT:          0 MISS:          0
cpu0_STLB PREFETCH REQUESTED:          0 ISSUED:          0 USEFUL:          0 USELESS:          0
cpu0_STLB AVERAGE MISS LATENCY: 441.1 cycles

DRAM Statistics

Channel 0 RQ ROW_BUFFER_HIT:     176868
  ROW_BUFFER_MISS:     937362
 AVG DBUS CONGESTED CYCLE: 3.901
WQ ROW_BUFFER_HIT: Channel 0 
  ROW_BUFFER_MISS:      10281
  FULL:      33933
