WARNING: physical memory size is smaller than virtual memory size.

*** ChampSim Multicore Out-of-Order Simulator ***
Warmup Instructions: 25000000
Simulation Instructions: 25000000
Number of CPUs: 1
Page size: 4096

Off-chip DRAM Size: 4 GiB Channels: 1 Width: 64-bit Data Race: 800 MT/s
Heartbeat CPU 0 instructions: 10000000 cycles: 2569787 heartbeat IPC: 3.891 cumulative IPC: 3.891 (Simulation time: 00 hr 00 min 28 sec)
Heartbeat CPU 0 instructions: 20000000 cycles: 5139174 heartbeat IPC: 3.892 cumulative IPC: 3.892 (Simulation time: 00 hr 00 min 59 sec)
Warmup finished CPU 0 instructions: 25000002 cycles: 6421568 cumulative IPC: 3.893 (Simulation time: 00 hr 01 min 15 sec)
Warmup complete CPU 0 instructions: 25000002 cycles: 6421568 cumulative IPC: 3.893 (Simulation time: 00 hr 01 min 15 sec)
Heartbeat CPU 0 instructions: 30000003 cycles: 20086162 heartbeat IPC: 0.669 cumulative IPC: 0.3659 (Simulation time: 00 hr 02 min 24 sec)
Heartbeat CPU 0 instructions: 40000001 cycles: 47899456 heartbeat IPC: 0.3595 cumulative IPC: 0.3616 (Simulation time: 00 hr 04 min 42 sec)
Heartbeat CPU 0 instructions: 50000003 cycles: 76214314 heartbeat IPC: 0.3532 cumulative IPC: 0.3582 (Simulation time: 00 hr 07 min 02 sec)
Simulation finished CPU 0 instructions: 25000001 cycles: 69792747 cumulative IPC: 0.3582 (Simulation time: 00 hr 07 min 02 sec)
Simulation complete CPU 0 instructions: 25000001 cycles: 69792747 cumulative IPC: 0.3582 (Simulation time: 00 hr 07 min 02 sec)

ChampSim completed all CPUs

=== Simulation ===
CPU 0 runs ./traces/605.mcf_s-1152B.champsimtrace.xz
Region of Interest Statistics

CPU 0 cumulative IPC: 0.3582 instructions: 25000001 cycles: 69792747
CPU 0 Branch Prediction Accuracy: 85.61% MPKI: 35.89 Average ROB Occupancy at Mispredict: 11.21
Branch type MPKI
BRANCH_DIRECT_JUMP: 0.211
BRANCH_INDIRECT: 0
BRANCH_CONDITIONAL: 35.7
BRANCH_DIRECT_CALL: 0
BRANCH_INDIRECT_CALL: 0.00464
BRANCH_RETURN: 0

LLC TOTAL        ACCESS:    1863784 HIT:    1260595 MISS:     603189
LLC LOAD         ACCESS:     768309 HIT:     560470 MISS:     207839
LLC RFO          ACCESS:      75385 HIT:      74929 MISS:        456
LLC PREFETCH     ACCESS:     910807 HIT:     517444 MISS:     393363
LLC WRITE        ACCESS:     106352 HIT:     106310 MISS:         42
LLC TRANSLATION  ACCESS:       2931 HIT:       1442 MISS:       1489
LLC PREFETCH REQUESTED:          0 ISSUED:          0 USEFUL:          0 USELESS:          0
LLC AVERAGE MISS LATENCY: 296.5 cycles
cpu0_DTLB TOTAL        ACCESS:    7657981 HIT:    6904731 MISS:     753250
cpu0_DTLB LOAD         ACCESS:    7657981 HIT:    6904731 MISS:     753250
cpu0_DTLB RFO          ACCESS:          0 HIT:          0 MISS:          0
cpu0_DTLB PREFETCH     ACCESS:          0 HIT:          0 MISS:          0
cpu0_DTLB WRITE        ACCESS:          0 HIT:          0 MISS:          0
cpu0_DTLB TRANSLATION  ACCESS:          0 HIT:          0 MISS:          0
cpu0_DTLB PREFETCH REQUESTED:          0 ISSUED:          0 USEFUL:          0 USELESS:          0
cpu0_DTLB AVERAGE MISS LATENCY: 8.769 cycles
cpu0_ITLB TOTAL        ACCESS:      14175 HIT:      14175 MISS:          0
cpu0_ITLB LOAD         ACCESS:      14175 HIT:      14175 MISS:          0
cpu0_ITLB RFO          ACCESS:          0 HIT:          0 MISS:          0
cpu0_ITLB PREFETCH     ACCESS:          0 HIT:          0 MISS:          0
cpu0_ITLB WRITE        ACCESS:          0 HIT:          0 MISS:          0
cpu0_ITLB TRANSLATION  ACCESS:          0 HIT:          0 MISS:          0
cpu0_ITLB PREFETCH REQUESTED:          0 ISSUED:          0 USEFUL:          0 USELESS:          0
cpu0_ITLB AVERAGE MISS LATENCY: -nan cycles
cpu0_L1D TOTAL        ACCESS:   15858060 HIT:   12361600 MISS:    3496460
cpu0_L1D LOAD         ACCESS:    7122530 HIT:    5586697 MISS:    1535833
cpu0_L1D RFO          ACCESS:          0 HIT:          0 MISS:          0
cpu0_L1D PREFETCH     ACCESS:    6134852 HIT:    4462978 MISS:    1671874
cpu0_L1D WRITE        ACCESS:    2592485 HIT:    2307994 MISS:     284491
cpu0_L1D TRANSLATION  ACCESS:       8193 HIT:       3931 MISS:       4262
cpu0_L1D PREFETCH REQUESTED:    7827076 ISSUED:    6134852 USEFUL:     276885 USELESS:     756433
cpu0_L1D AVERAGE MISS LATENCY: 57.07 cycles
cpu0_L1I TOTAL        ACCESS:      16035 HIT:      16035 MISS:          0
cpu0_L1I LOAD         ACCESS:      16035 HIT:      16035 MISS:          0
cpu0_L1I RFO          ACCESS:          0 HIT:          0 MISS:          0
cpu0_L1I PREFETCH     ACCESS:          0 HIT:          0 MISS:          0
cpu0_L1I WRITE        ACCESS:          0 HIT:          0 MISS:          0
cpu0_L1I TRANSLATION  ACCESS:          0 HIT:          0 MISS:          0
cpu0_L1I PREFETCH REQUESTED:          0 ISSUED:          0 USEFUL:          0 USELESS:          0
cpu0_L1I AVERAGE MISS LATENCY: -nan cycles
cpu0_L2C TOTAL        ACCESS:    2472278 HIT:     657920 MISS:    1814358
cpu0_L2C LOAD         ACCESS:    1054356 HIT:     276804 MISS:     777552
cpu0_L2C RFO          ACCESS:      97561 HIT:      22176 MISS:      75385
cpu0_L2C PREFETCH     ACCESS:    1172358 HIT:     214114 MISS:     958244
cpu0_L2C WRITE        ACCESS:     143741 HIT:     143495 MISS:        246
cpu0_L2C TRANSLATION  ACCESS:       4262 HIT:       1331 MISS:       2931
cpu0_L2C PREFETCH REQUESTED:     138968 ISSUED:     138968 USEFUL:      46267 USELESS:       7078
cpu0_L2C AVERAGE MISS LATENCY: 115.5 cycles
cpu0_STLB TOTAL        ACCESS:     639436 HIT:     631307 MISS:       8129
cpu0_STLB LOAD         ACCESS:     639436 HIT:     631307 MISS:       8129
cpu0_STLB RFO          ACCESS:          0 HIT:          0 MISS:          0
cpu0_STLB PREFETCH     ACCESS:          0 HIT:          0 MISS:          0
cpu0_STLB WRITE        ACCESS:          0 HIT:          0 MISS:          0
cpu0_STLB TRANSLATION  ACCESS:          0 HIT:          0 MISS:          0
cpu0_STLB PREFETCH REQUESTED:          0 ISSUED:          0 USEFUL:          0 USELESS:          0
cpu0_STLB AVERAGE MISS LATENCY: 221.1 cycles

DRAM Statistics

Channel 0 RQ ROW_BUFFER_HIT:     177214
  ROW_BUFFER_MISS:     417349
 AVG DBUS CONGESTED CYCLE: 3.848
WQ ROW_BUFFER_HIT: Channel 0 
  ROW_BUFFER_MISS:       1983
  FULL:       1257
