WARNING: physical memory size is smaller than virtual memory size.

*** ChampSim Multicore Out-of-Order Simulator ***
Warmup Instructions: 25000000
Simulation Instructions: 25000000
Number of CPUs: 1
Page size: 4096

Off-chip DRAM Size: 4 GiB Channels: 1 Width: 64-bit Data Race: 800 MT/s
Heartbeat CPU 0 instructions: 10000000 cycles: 3018742 heartbeat IPC: 3.313 cumulative IPC: 3.313 (Simulation time: 00 hr 00 min 33 sec)
Heartbeat CPU 0 instructions: 20000000 cycles: 5881336 heartbeat IPC: 3.493 cumulative IPC: 3.401 (Simulation time: 00 hr 01 min 07 sec)
Warmup finished CPU 0 instructions: 25000002 cycles: 7240950 cumulative IPC: 3.453 (Simulation time: 00 hr 01 min 24 sec)
Warmup complete CPU 0 instructions: 25000002 cycles: 7240950 cumulative IPC: 3.453 (Simulation time: 00 hr 01 min 24 sec)
Heartbeat CPU 0 instructions: 30000000 cycles: 30956479 heartbeat IPC: 0.3988 cumulative IPC: 0.2108 (Simulation time: 00 hr 03 min 42 sec)
Heartbeat CPU 0 instructions: 40000002 cycles: 59025210 heartbeat IPC: 0.3563 cumulative IPC: 0.2897 (Simulation time: 00 hr 06 min 06 sec)
Heartbeat CPU 0 instructions: 50000000 cycles: 92365637 heartbeat IPC: 0.2999 cumulative IPC: 0.2937 (Simulation time: 00 hr 08 min 45 sec)
Simulation finished CPU 0 instructions: 25000002 cycles: 85124689 cumulative IPC: 0.2937 (Simulation time: 00 hr 08 min 45 sec)
Simulation complete CPU 0 instructions: 25000002 cycles: 85124689 cumulative IPC: 0.2937 (Simulation time: 00 hr 08 min 45 sec)

ChampSim completed all CPUs

=== Simulation ===
CPU 0 runs ./traces/605.mcf_s-472B.champsimtrace.xz
Region of Interest Statistics

CPU 0 cumulative IPC: 0.2937 instructions: 25000002 cycles: 85124689
CPU 0 Branch Prediction Accuracy: 97.33% MPKI: 2.992 Average ROB Occupancy at Mispredict: 77.09
Branch type MPKI
BRANCH_DIRECT_JUMP: 0
BRANCH_INDIRECT: 0
BRANCH_CONDITIONAL: 2.99
BRANCH_DIRECT_CALL: 0
BRANCH_INDIRECT_CALL: 0
BRANCH_RETURN: 0

LLC TOTAL        ACCESS:    1954959 HIT:     225447 MISS:    1729512
LLC LOAD         ACCESS:     989468 HIT:      67302 MISS:     922166
LLC RFO          ACCESS:      54807 HIT:         61 MISS:      54746
LLC PREFETCH     ACCESS:     777408 HIT:      27253 MISS:     750155
LLC WRITE        ACCESS:     130083 HIT:     129606 MISS:        477
LLC TRANSLATION  ACCESS:       3193 HIT:       1225 MISS:       1968
LLC PREFETCH REQUESTED:          0 ISSUED:          0 USEFUL:          0 USELESS:          0
LLC AVERAGE MISS LATENCY: 723.2 cycles
cpu0_DTLB TOTAL        ACCESS:    7565429 HIT:    7389206 MISS:     176223
cpu0_DTLB LOAD         ACCESS:    7565429 HIT:    7389206 MISS:     176223
cpu0_DTLB RFO          ACCESS:          0 HIT:          0 MISS:          0
cpu0_DTLB PREFETCH     ACCESS:          0 HIT:          0 MISS:          0
cpu0_DTLB WRITE        ACCESS:          0 HIT:          0 MISS:          0
cpu0_DTLB TRANSLATION  ACCESS:          0 HIT:          0 MISS:          0
cpu0_DTLB PREFETCH REQUESTED:          0 ISSUED:          0 USEFUL:          0 USELESS:          0
cpu0_DTLB AVERAGE MISS LATENCY: 22.98 cycles
cpu0_ITLB TOTAL        ACCESS:          0 HIT:          0 MISS:          0
cpu0_ITLB LOAD         ACCESS:          0 HIT:          0 MISS:          0
cpu0_ITLB RFO          ACCESS:          0 HIT:          0 MISS:          0
cpu0_ITLB PREFETCH     ACCESS:          0 HIT:          0 MISS:          0
cpu0_ITLB WRITE        ACCESS:          0 HIT:          0 MISS:          0
cpu0_ITLB TRANSLATION  ACCESS:          0 HIT:          0 MISS:          0
cpu0_ITLB PREFETCH REQUESTED:          0 ISSUED:          0 USEFUL:          0 USELESS:          0
cpu0_ITLB AVERAGE MISS LATENCY: -nan cycles
cpu0_L1D TOTAL        ACCESS:   12419906 HIT:   10756169 MISS:    1663737
cpu0_L1D LOAD         ACCESS:    4778613 HIT:    3584777 MISS:    1193836
cpu0_L1D RFO          ACCESS:          0 HIT:          0 MISS:          0
cpu0_L1D PREFETCH     ACCESS:    1464926 HIT:    1263519 MISS:     201407
cpu0_L1D WRITE        ACCESS:    6145400 HIT:    5888548 MISS:     256852
cpu0_L1D TRANSLATION  ACCESS:      30967 HIT:      19325 MISS:      11642
cpu0_L1D PREFETCH REQUESTED:   53502212 ISSUED:    1464926 USEFUL:      11206 USELESS:      99133
cpu0_L1D AVERAGE MISS LATENCY: 594.1 cycles
cpu0_L1I TOTAL        ACCESS:          0 HIT:          0 MISS:          0
cpu0_L1I LOAD         ACCESS:          0 HIT:          0 MISS:          0
cpu0_L1I RFO          ACCESS:          0 HIT:          0 MISS:          0
cpu0_L1I PREFETCH     ACCESS:          0 HIT:          0 MISS:          0
cpu0_L1I WRITE        ACCESS:          0 HIT:          0 MISS:          0
cpu0_L1I TRANSLATION  ACCESS:          0 HIT:          0 MISS:          0
cpu0_L1I PREFETCH REQUESTED:          0 ISSUED:          0 USEFUL:          0 USELESS:          0
cpu0_L1I AVERAGE MISS LATENCY: -nan cycles
cpu0_L2C TOTAL        ACCESS:    2213660 HIT:     311656 MISS:    1902004
cpu0_L2C LOAD         ACCESS:    1116258 HIT:      87662 MISS:    1028596
cpu0_L2C RFO          ACCESS:      58859 HIT:       4052 MISS:      54807
cpu0_L2C PREFETCH     ACCESS:     867838 HIT:      53339 MISS:     814499
cpu0_L2C WRITE        ACCESS:     159073 HIT:     158164 MISS:        909
cpu0_L2C TRANSLATION  ACCESS:      11632 HIT:       8439 MISS:       3193
cpu0_L2C PREFETCH REQUESTED:     757513 ISSUED:     757513 USEFUL:     106395 USELESS:      22494
cpu0_L2C AVERAGE MISS LATENCY: 543.6 cycles
cpu0_STLB TOTAL        ACCESS:      59563 HIT:      28624 MISS:      30939
cpu0_STLB LOAD         ACCESS:      59563 HIT:      28624 MISS:      30939
cpu0_STLB RFO          ACCESS:          0 HIT:          0 MISS:          0
cpu0_STLB PREFETCH     ACCESS:          0 HIT:          0 MISS:          0
cpu0_STLB WRITE        ACCESS:          0 HIT:          0 MISS:          0
cpu0_STLB TRANSLATION  ACCESS:          0 HIT:          0 MISS:          0
cpu0_STLB PREFETCH REQUESTED:          0 ISSUED:          0 USEFUL:          0 USELESS:          0
cpu0_STLB AVERAGE MISS LATENCY: 336.2 cycles

DRAM Statistics

Channel 0 RQ ROW_BUFFER_HIT:     894217
  ROW_BUFFER_MISS:     459272
 AVG DBUS CONGESTED CYCLE: 3.915
WQ ROW_BUFFER_HIT: Channel 0 
  ROW_BUFFER_MISS:      13386
  FULL:     114889
