WARNING: physical memory size is smaller than virtual memory size.

*** ChampSim Multicore Out-of-Order Simulator ***
Warmup Instructions: 25000000
Simulation Instructions: 25000000
Number of CPUs: 1
Page size: 4096

Off-chip DRAM Size: 4 GiB Channels: 1 Width: 64-bit Data Race: 800 MT/s
Heartbeat CPU 0 instructions: 10000000 cycles: 2699691 heartbeat IPC: 3.704 cumulative IPC: 3.704 (Simulation time: 00 hr 00 min 35 sec)
Heartbeat CPU 0 instructions: 20000000 cycles: 5399321 heartbeat IPC: 3.704 cumulative IPC: 3.704 (Simulation time: 00 hr 01 min 10 sec)
Warmup finished CPU 0 instructions: 25000000 cycles: 6749645 cumulative IPC: 3.704 (Simulation time: 00 hr 01 min 27 sec)
Warmup complete CPU 0 instructions: 25000000 cycles: 6749645 cumulative IPC: 3.704 (Simulation time: 00 hr 01 min 27 sec)
Heartbeat CPU 0 instructions: 30000003 cycles: 8977897 heartbeat IPC: 2.794 cumulative IPC: 2.244 (Simulation time: 00 hr 01 min 54 sec)
Heartbeat CPU 0 instructions: 40000003 cycles: 13452878 heartbeat IPC: 2.235 cumulative IPC: 2.238 (Simulation time: 00 hr 02 min 46 sec)
Heartbeat CPU 0 instructions: 50000000 cycles: 17897618 heartbeat IPC: 2.25 cumulative IPC: 2.243 (Simulation time: 00 hr 03 min 38 sec)
Simulation finished CPU 0 instructions: 25000000 cycles: 11147974 cumulative IPC: 2.243 (Simulation time: 00 hr 03 min 38 sec)
Simulation complete CPU 0 instructions: 25000000 cycles: 11147974 cumulative IPC: 2.243 (Simulation time: 00 hr 03 min 38 sec)

ChampSim completed all CPUs

=== Simulation ===
CPU 0 runs ./traces/607.cactuBSSN_s-4004B.champsimtrace.xz
Region of Interest Statistics

CPU 0 cumulative IPC: 2.243 instructions: 25000000 cycles: 11147974
CPU 0 Branch Prediction Accuracy: 91.83% MPKI: 0.728 Average ROB Occupancy at Mispredict: 296.9
Branch type MPKI
BRANCH_DIRECT_JUMP: 0
BRANCH_INDIRECT: 0
BRANCH_CONDITIONAL: 0.365
BRANCH_DIRECT_CALL: 0
BRANCH_INDIRECT_CALL: 0
BRANCH_RETURN: 0.363

LLC TOTAL        ACCESS:     262095 HIT:     195892 MISS:      66203
LLC LOAD         ACCESS:     122860 HIT:      94035 MISS:      28825
LLC RFO          ACCESS:      22688 HIT:       7988 MISS:      14700
LLC PREFETCH     ACCESS:      91865 HIT:      69987 MISS:      21878
LLC WRITE        ACCESS:      23197 HIT:      23132 MISS:         65
LLC TRANSLATION  ACCESS:       1485 HIT:        750 MISS:        735
LLC PREFETCH REQUESTED:          0 ISSUED:          0 USEFUL:          0 USELESS:          0
LLC AVERAGE MISS LATENCY: 823.4 cycles
cpu0_DTLB TOTAL        ACCESS:    6196549 HIT:    5051947 MISS:    1144602
cpu0_DTLB LOAD         ACCESS:    6196549 HIT:    5051947 MISS:    1144602
cpu0_DTLB RFO          ACCESS:          0 HIT:          0 MISS:          0
cpu0_DTLB PREFETCH     ACCESS:          0 HIT:          0 MISS:          0
cpu0_DTLB WRITE        ACCESS:          0 HIT:          0 MISS:          0
cpu0_DTLB TRANSLATION  ACCESS:          0 HIT:          0 MISS:          0
cpu0_DTLB PREFETCH REQUESTED:          0 ISSUED:          0 USEFUL:          0 USELESS:          0
cpu0_DTLB AVERAGE MISS LATENCY: 6.825 cycles
cpu0_ITLB TOTAL        ACCESS:    3003918 HIT:    3003918 MISS:          0
cpu0_ITLB LOAD         ACCESS:    3003918 HIT:    3003918 MISS:          0
cpu0_ITLB RFO          ACCESS:          0 HIT:          0 MISS:          0
cpu0_ITLB PREFETCH     ACCESS:          0 HIT:          0 MISS:          0
cpu0_ITLB WRITE        ACCESS:          0 HIT:          0 MISS:          0
cpu0_ITLB TRANSLATION  ACCESS:          0 HIT:          0 MISS:          0
cpu0_ITLB PREFETCH REQUESTED:          0 ISSUED:          0 USEFUL:          0 USELESS:          0
cpu0_ITLB AVERAGE MISS LATENCY: -nan cycles
cpu0_L1D TOTAL        ACCESS:    9320471 HIT:    7041304 MISS:    2279167
cpu0_L1D LOAD         ACCESS:    6318841 HIT:    4383347 MISS:    1935494
cpu0_L1D RFO          ACCESS:          0 HIT:          0 MISS:          0
cpu0_L1D PREFETCH     ACCESS:     982959 HIT:     832473 MISS:     150486
cpu0_L1D WRITE        ACCESS:    2017140 HIT:    1825469 MISS:     191671
cpu0_L1D TRANSLATION  ACCESS:       1531 HIT:         15 MISS:       1516
cpu0_L1D PREFETCH REQUESTED:    7264780 ISSUED:     982958 USEFUL:      15941 USELESS:     101210
cpu0_L1D AVERAGE MISS LATENCY: 34.26 cycles
cpu0_L1I TOTAL        ACCESS:    4127764 HIT:    3039983 MISS:    1087781
cpu0_L1I LOAD         ACCESS:    4127764 HIT:    3039983 MISS:    1087781
cpu0_L1I RFO          ACCESS:          0 HIT:          0 MISS:          0
cpu0_L1I PREFETCH     ACCESS:          0 HIT:          0 MISS:          0
cpu0_L1I WRITE        ACCESS:          0 HIT:          0 MISS:          0
cpu0_L1I TRANSLATION  ACCESS:          0 HIT:          0 MISS:          0
cpu0_L1I PREFETCH REQUESTED:          0 ISSUED:          0 USEFUL:          0 USELESS:          0
cpu0_L1I AVERAGE MISS LATENCY: 6.556 cycles
cpu0_L2C TOTAL        ACCESS:    3138439 HIT:    2898944 MISS:     239495
cpu0_L2C LOAD         ACCESS:    2476522 HIT:    2353656 MISS:     122866
cpu0_L2C RFO          ACCESS:     167464 HIT:     144527 MISS:      22937
cpu0_L2C PREFETCH     ACCESS:     299263 HIT:     207161 MISS:      92102
cpu0_L2C WRITE        ACCESS:     193674 HIT:     193569 MISS:        105
cpu0_L2C TRANSLATION  ACCESS:       1516 HIT:         31 MISS:       1485
cpu0_L2C PREFETCH REQUESTED:     208040 ISSUED:     182102 USEFUL:      45847 USELESS:        215
cpu0_L2C AVERAGE MISS LATENCY: 247.6 cycles
cpu0_STLB TOTAL        ACCESS:     969587 HIT:     968569 MISS:       1018
cpu0_STLB LOAD         ACCESS:     969587 HIT:     968569 MISS:       1018
cpu0_STLB RFO          ACCESS:          0 HIT:          0 MISS:          0
cpu0_STLB PREFETCH     ACCESS:          0 HIT:          0 MISS:          0
cpu0_STLB WRITE        ACCESS:          0 HIT:          0 MISS:          0
cpu0_STLB TRANSLATION  ACCESS:          0 HIT:          0 MISS:          0
cpu0_STLB PREFETCH REQUESTED:          0 ISSUED:          0 USEFUL:          0 USELESS:          0
cpu0_STLB AVERAGE MISS LATENCY: 785 cycles

DRAM Statistics

Channel 0 RQ ROW_BUFFER_HIT:      33869
  ROW_BUFFER_MISS:      32269
 AVG DBUS CONGESTED CYCLE: 3.858
WQ ROW_BUFFER_HIT: Channel 0 
  ROW_BUFFER_MISS:       1431
  FULL:      13301
