WARNING: physical memory size is smaller than virtual memory size.

*** ChampSim Multicore Out-of-Order Simulator ***
Warmup Instructions: 25000000
Simulation Instructions: 25000000
Number of CPUs: 1
Page size: 4096

Off-chip DRAM Size: 4 GiB Channels: 1 Width: 64-bit Data Race: 800 MT/s
Heartbeat CPU 0 instructions: 10000003 cycles: 2703742 heartbeat IPC: 3.699 cumulative IPC: 3.699 (Simulation time: 00 hr 00 min 35 sec)
Heartbeat CPU 0 instructions: 20000001 cycles: 5406995 heartbeat IPC: 3.699 cumulative IPC: 3.699 (Simulation time: 00 hr 01 min 11 sec)
Warmup finished CPU 0 instructions: 25000003 cycles: 6758792 cumulative IPC: 3.699 (Simulation time: 00 hr 01 min 30 sec)
Warmup complete CPU 0 instructions: 25000003 cycles: 6758792 cumulative IPC: 3.699 (Simulation time: 00 hr 01 min 30 sec)
Heartbeat CPU 0 instructions: 30000003 cycles: 9024802 heartbeat IPC: 2.764 cumulative IPC: 2.207 (Simulation time: 00 hr 01 min 58 sec)
Heartbeat CPU 0 instructions: 40000000 cycles: 13464283 heartbeat IPC: 2.253 cumulative IPC: 2.237 (Simulation time: 00 hr 02 min 51 sec)
Heartbeat CPU 0 instructions: 50000000 cycles: 18248380 heartbeat IPC: 2.09 cumulative IPC: 2.176 (Simulation time: 00 hr 03 min 46 sec)
Simulation finished CPU 0 instructions: 25000001 cycles: 11489590 cumulative IPC: 2.176 (Simulation time: 00 hr 03 min 46 sec)
Simulation complete CPU 0 instructions: 25000001 cycles: 11489590 cumulative IPC: 2.176 (Simulation time: 00 hr 03 min 46 sec)

ChampSim completed all CPUs

=== Simulation ===
CPU 0 runs ./traces/607.cactuBSSN_s-3477B.champsimtrace.xz
Region of Interest Statistics

CPU 0 cumulative IPC: 2.176 instructions: 25000001 cycles: 11489590
CPU 0 Branch Prediction Accuracy: 91.83% MPKI: 0.7242 Average ROB Occupancy at Mispredict: 287.8
Branch type MPKI
BRANCH_DIRECT_JUMP: 0
BRANCH_INDIRECT: 4e-05
BRANCH_CONDITIONAL: 0.363
BRANCH_DIRECT_CALL: 0
BRANCH_INDIRECT_CALL: 0
BRANCH_RETURN: 0.362

LLC TOTAL        ACCESS:     265117 HIT:     193751 MISS:      71366
LLC LOAD         ACCESS:     122351 HIT:      91451 MISS:      30900
LLC RFO          ACCESS:      22886 HIT:       8261 MISS:      14625
LLC PREFETCH     ACCESS:      94831 HIT:      70008 MISS:      24823
LLC WRITE        ACCESS:      23335 HIT:      23272 MISS:         63
LLC TRANSLATION  ACCESS:       1714 HIT:        759 MISS:        955
LLC PREFETCH REQUESTED:          0 ISSUED:          0 USEFUL:          0 USELESS:          0
LLC AVERAGE MISS LATENCY: 847.7 cycles
cpu0_DTLB TOTAL        ACCESS:    6346857 HIT:    5240481 MISS:    1106376
cpu0_DTLB LOAD         ACCESS:    6346857 HIT:    5240481 MISS:    1106376
cpu0_DTLB RFO          ACCESS:          0 HIT:          0 MISS:          0
cpu0_DTLB PREFETCH     ACCESS:          0 HIT:          0 MISS:          0
cpu0_DTLB WRITE        ACCESS:          0 HIT:          0 MISS:          0
cpu0_DTLB TRANSLATION  ACCESS:          0 HIT:          0 MISS:          0
cpu0_DTLB PREFETCH REQUESTED:          0 ISSUED:          0 USEFUL:          0 USELESS:          0
cpu0_DTLB AVERAGE MISS LATENCY: 7.225 cycles
cpu0_ITLB TOTAL        ACCESS:    3019041 HIT:    3019041 MISS:          0
cpu0_ITLB LOAD         ACCESS:    3019041 HIT:    3019041 MISS:          0
cpu0_ITLB RFO          ACCESS:          0 HIT:          0 MISS:          0
cpu0_ITLB PREFETCH     ACCESS:          0 HIT:          0 MISS:          0
cpu0_ITLB WRITE        ACCESS:          0 HIT:          0 MISS:          0
cpu0_ITLB TRANSLATION  ACCESS:          0 HIT:          0 MISS:          0
cpu0_ITLB PREFETCH REQUESTED:          0 ISSUED:          0 USEFUL:          0 USELESS:          0
cpu0_ITLB AVERAGE MISS LATENCY: -nan cycles
cpu0_L1D TOTAL        ACCESS:    9382834 HIT:    7121506 MISS:    2261328
cpu0_L1D LOAD         ACCESS:    6329446 HIT:    4419104 MISS:    1910342
cpu0_L1D RFO          ACCESS:          0 HIT:          0 MISS:          0
cpu0_L1D PREFETCH     ACCESS:    1057554 HIT:     905396 MISS:     152158
cpu0_L1D WRITE        ACCESS:    1994064 HIT:    1796990 MISS:     197074
cpu0_L1D TRANSLATION  ACCESS:       1770 HIT:         16 MISS:       1754
cpu0_L1D PREFETCH REQUESTED:    7452291 ISSUED:    1057554 USEFUL:      15528 USELESS:     103990
cpu0_L1D AVERAGE MISS LATENCY: 36.56 cycles
cpu0_L1I TOTAL        ACCESS:    4167020 HIT:    2931544 MISS:    1235476
cpu0_L1I LOAD         ACCESS:    4167020 HIT:    2931544 MISS:    1235476
cpu0_L1I RFO          ACCESS:          0 HIT:          0 MISS:          0
cpu0_L1I PREFETCH     ACCESS:          0 HIT:          0 MISS:          0
cpu0_L1I WRITE        ACCESS:          0 HIT:          0 MISS:          0
cpu0_L1I TRANSLATION  ACCESS:          0 HIT:          0 MISS:          0
cpu0_L1I PREFETCH REQUESTED:          0 ISSUED:          0 USEFUL:          0 USELESS:          0
cpu0_L1I AVERAGE MISS LATENCY: 6.376 cycles
cpu0_L2C TOTAL        ACCESS:    3194916 HIT:    2952508 MISS:     242408
cpu0_L2C LOAD         ACCESS:    2530796 HIT:    2408438 MISS:     122358
cpu0_L2C RFO          ACCESS:     169588 HIT:     146390 MISS:      23198
cpu0_L2C PREFETCH     ACCESS:     299696 HIT:     204614 MISS:      95082
cpu0_L2C WRITE        ACCESS:     193084 HIT:     193028 MISS:         56
cpu0_L2C TRANSLATION  ACCESS:       1752 HIT:         38 MISS:       1714
cpu0_L2C PREFETCH REQUESTED:     208046 ISSUED:     180157 USEFUL:      46110 USELESS:        354
cpu0_L2C AVERAGE MISS LATENCY: 267.7 cycles
cpu0_STLB TOTAL        ACCESS:     949263 HIT:     948058 MISS:       1205
cpu0_STLB LOAD         ACCESS:     949263 HIT:     948058 MISS:       1205
cpu0_STLB RFO          ACCESS:          0 HIT:          0 MISS:          0
cpu0_STLB PREFETCH     ACCESS:          0 HIT:          0 MISS:          0
cpu0_STLB WRITE        ACCESS:          0 HIT:          0 MISS:          0
cpu0_STLB TRANSLATION  ACCESS:          0 HIT:          0 MISS:          0
cpu0_STLB PREFETCH REQUESTED:          0 ISSUED:          0 USEFUL:          0 USELESS:          0
cpu0_STLB AVERAGE MISS LATENCY: 971.2 cycles

DRAM Statistics

Channel 0 RQ ROW_BUFFER_HIT:      35546
  ROW_BUFFER_MISS:      35751
 AVG DBUS CONGESTED CYCLE: 3.867
WQ ROW_BUFFER_HIT: Channel 0 
  ROW_BUFFER_MISS:       1810
  FULL:      14196
