WARNING: physical memory size is smaller than virtual memory size.

*** ChampSim Multicore Out-of-Order Simulator ***
Warmup Instructions: 25000000
Simulation Instructions: 25000000
Number of CPUs: 1
Page size: 4096

Off-chip DRAM Size: 4 GiB Channels: 1 Width: 64-bit Data Race: 800 MT/s
Heartbeat CPU 0 instructions: 10000002 cycles: 2700057 heartbeat IPC: 3.704 cumulative IPC: 3.704 (Simulation time: 00 hr 00 min 36 sec)
Heartbeat CPU 0 instructions: 20000000 cycles: 5397334 heartbeat IPC: 3.707 cumulative IPC: 3.706 (Simulation time: 00 hr 01 min 12 sec)
Warmup finished CPU 0 instructions: 25000001 cycles: 6745826 cumulative IPC: 3.706 (Simulation time: 00 hr 01 min 32 sec)
Warmup complete CPU 0 instructions: 25000001 cycles: 6745826 cumulative IPC: 3.706 (Simulation time: 00 hr 01 min 32 sec)
Heartbeat CPU 0 instructions: 30000002 cycles: 8957982 heartbeat IPC: 2.808 cumulative IPC: 2.26 (Simulation time: 00 hr 02 min 01 sec)
Heartbeat CPU 0 instructions: 40000003 cycles: 13404282 heartbeat IPC: 2.249 cumulative IPC: 2.253 (Simulation time: 00 hr 02 min 59 sec)
Heartbeat CPU 0 instructions: 50000000 cycles: 17852209 heartbeat IPC: 2.248 cumulative IPC: 2.251 (Simulation time: 00 hr 03 min 57 sec)
Simulation finished CPU 0 instructions: 25000003 cycles: 11106385 cumulative IPC: 2.251 (Simulation time: 00 hr 03 min 57 sec)
Simulation complete CPU 0 instructions: 25000003 cycles: 11106385 cumulative IPC: 2.251 (Simulation time: 00 hr 03 min 57 sec)

ChampSim completed all CPUs

=== Simulation ===
CPU 0 runs ./traces/607.cactuBSSN_s-2421B.champsimtrace.xz
Region of Interest Statistics

CPU 0 cumulative IPC: 2.251 instructions: 25000003 cycles: 11106385
CPU 0 Branch Prediction Accuracy: 91.83% MPKI: 0.728 Average ROB Occupancy at Mispredict: 301
Branch type MPKI
BRANCH_DIRECT_JUMP: 0
BRANCH_INDIRECT: 0
BRANCH_CONDITIONAL: 0.365
BRANCH_DIRECT_CALL: 0
BRANCH_INDIRECT_CALL: 0
BRANCH_RETURN: 0.363

LLC TOTAL        ACCESS:     248429 HIT:     182132 MISS:      66297
LLC LOAD         ACCESS:     113891 HIT:      84784 MISS:      29107
LLC RFO          ACCESS:      19655 HIT:       4930 MISS:      14725
LLC PREFETCH     ACCESS:      93425 HIT:      71744 MISS:      21681
LLC WRITE        ACCESS:      19962 HIT:      19925 MISS:         37
LLC TRANSLATION  ACCESS:       1496 HIT:        749 MISS:        747
LLC PREFETCH REQUESTED:          0 ISSUED:          0 USEFUL:          0 USELESS:          0
LLC AVERAGE MISS LATENCY: 816.9 cycles
cpu0_DTLB TOTAL        ACCESS:    6170270 HIT:    5033965 MISS:    1136305
cpu0_DTLB LOAD         ACCESS:    6170270 HIT:    5033965 MISS:    1136305
cpu0_DTLB RFO          ACCESS:          0 HIT:          0 MISS:          0
cpu0_DTLB PREFETCH     ACCESS:          0 HIT:          0 MISS:          0
cpu0_DTLB WRITE        ACCESS:          0 HIT:          0 MISS:          0
cpu0_DTLB TRANSLATION  ACCESS:          0 HIT:          0 MISS:          0
cpu0_DTLB PREFETCH REQUESTED:          0 ISSUED:          0 USEFUL:          0 USELESS:          0
cpu0_DTLB AVERAGE MISS LATENCY: 6.825 cycles
cpu0_ITLB TOTAL        ACCESS:    2993941 HIT:    2993941 MISS:          0
cpu0_ITLB LOAD         ACCESS:    2993941 HIT:    2993941 MISS:          0
cpu0_ITLB RFO          ACCESS:          0 HIT:          0 MISS:          0
cpu0_ITLB PREFETCH     ACCESS:          0 HIT:          0 MISS:          0
cpu0_ITLB WRITE        ACCESS:          0 HIT:          0 MISS:          0
cpu0_ITLB TRANSLATION  ACCESS:          0 HIT:          0 MISS:          0
cpu0_ITLB PREFETCH REQUESTED:          0 ISSUED:          0 USEFUL:          0 USELESS:          0
cpu0_ITLB AVERAGE MISS LATENCY: -nan cycles
cpu0_L1D TOTAL        ACCESS:    9288650 HIT:    7008628 MISS:    2280022
cpu0_L1D LOAD         ACCESS:    6296828 HIT:    4367034 MISS:    1929794
cpu0_L1D RFO          ACCESS:          0 HIT:          0 MISS:          0
cpu0_L1D PREFETCH     ACCESS:     972557 HIT:     826323 MISS:     146234
cpu0_L1D WRITE        ACCESS:    2017722 HIT:    1815242 MISS:     202480
cpu0_L1D TRANSLATION  ACCESS:       1543 HIT:         29 MISS:       1514
cpu0_L1D PREFETCH REQUESTED:    7252119 ISSUED:     972559 USEFUL:      14709 USELESS:      99623
cpu0_L1D AVERAGE MISS LATENCY: 34.05 cycles
cpu0_L1I TOTAL        ACCESS:    4124054 HIT:    3037334 MISS:    1086720
cpu0_L1I LOAD         ACCESS:    4124054 HIT:    3037334 MISS:    1086720
cpu0_L1I RFO          ACCESS:          0 HIT:          0 MISS:          0
cpu0_L1I PREFETCH     ACCESS:          0 HIT:          0 MISS:          0
cpu0_L1I WRITE        ACCESS:          0 HIT:          0 MISS:          0
cpu0_L1I TRANSLATION  ACCESS:          0 HIT:          0 MISS:          0
cpu0_L1I PREFETCH REQUESTED:          0 ISSUED:          0 USEFUL:          0 USELESS:          0
cpu0_L1I AVERAGE MISS LATENCY: 6.54 cycles
cpu0_L2C TOTAL        ACCESS:    3129838 HIT:    2900894 MISS:     228944
cpu0_L2C LOAD         ACCESS:    2471549 HIT:    2357653 MISS:     113896
cpu0_L2C RFO          ACCESS:     167711 HIT:     147876 MISS:      19835
cpu0_L2C PREFETCH     ACCESS:     296610 HIT:     202941 MISS:      93669
cpu0_L2C WRITE        ACCESS:     192454 HIT:     192406 MISS:         48
cpu0_L2C TRANSLATION  ACCESS:       1514 HIT:         18 MISS:       1496
cpu0_L2C PREFETCH REQUESTED:     217011 ISSUED:     182277 USEFUL:      46938 USELESS:        104
cpu0_L2C AVERAGE MISS LATENCY: 256.7 cycles
cpu0_STLB TOTAL        ACCESS:     962170 HIT:     961152 MISS:       1018
cpu0_STLB LOAD         ACCESS:     962170 HIT:     961152 MISS:       1018
cpu0_STLB RFO          ACCESS:          0 HIT:          0 MISS:          0
cpu0_STLB PREFETCH     ACCESS:          0 HIT:          0 MISS:          0
cpu0_STLB WRITE        ACCESS:          0 HIT:          0 MISS:          0
cpu0_STLB TRANSLATION  ACCESS:          0 HIT:          0 MISS:          0
cpu0_STLB PREFETCH REQUESTED:          0 ISSUED:          0 USEFUL:          0 USELESS:          0
cpu0_STLB AVERAGE MISS LATENCY: 789.5 cycles

DRAM Statistics

Channel 0 RQ ROW_BUFFER_HIT:      34551
  ROW_BUFFER_MISS:      31705
 AVG DBUS CONGESTED CYCLE: 3.862
WQ ROW_BUFFER_HIT: Channel 0 
  ROW_BUFFER_MISS:       1520
  FULL:      13380
