WARNING: physical memory size is smaller than virtual memory size.

*** ChampSim Multicore Out-of-Order Simulator ***
Warmup Instructions: 25000000
Simulation Instructions: 25000000
Number of CPUs: 1
Page size: 4096

Off-chip DRAM Size: 4 GiB Channels: 1 Width: 64-bit Data Race: 800 MT/s
Heartbeat CPU 0 instructions: 10000003 cycles: 2500085 heartbeat IPC: 4 cumulative IPC: 4 (Simulation time: 00 hr 00 min 28 sec)
Heartbeat CPU 0 instructions: 20000002 cycles: 5008076 heartbeat IPC: 3.987 cumulative IPC: 3.994 (Simulation time: 00 hr 01 min 00 sec)
Warmup finished CPU 0 instructions: 25000002 cycles: 6258077 cumulative IPC: 3.995 (Simulation time: 00 hr 01 min 15 sec)
Warmup complete CPU 0 instructions: 25000002 cycles: 6258077 cumulative IPC: 3.995 (Simulation time: 00 hr 01 min 15 sec)
Heartbeat CPU 0 instructions: 30000002 cycles: 20939505 heartbeat IPC: 0.6277 cumulative IPC: 0.3406 (Simulation time: 00 hr 02 min 57 sec)
Heartbeat CPU 0 instructions: 40000000 cycles: 51529903 heartbeat IPC: 0.3269 cumulative IPC: 0.3313 (Simulation time: 00 hr 06 min 24 sec)
Heartbeat CPU 0 instructions: 50000002 cycles: 82666407 heartbeat IPC: 0.3212 cumulative IPC: 0.3272 (Simulation time: 00 hr 09 min 57 sec)
Simulation finished CPU 0 instructions: 25000000 cycles: 76408331 cumulative IPC: 0.3272 (Simulation time: 00 hr 09 min 57 sec)
Simulation complete CPU 0 instructions: 25000000 cycles: 76408331 cumulative IPC: 0.3272 (Simulation time: 00 hr 09 min 57 sec)

ChampSim completed all CPUs

=== Simulation ===
CPU 0 runs ./traces/619.lbm_s-3766B.champsimtrace.xz
Region of Interest Statistics

CPU 0 cumulative IPC: 0.3272 instructions: 25000000 cycles: 76408331
CPU 0 Branch Prediction Accuracy: 99.7% MPKI: 0.03212 Average ROB Occupancy at Mispredict: 259.2
Branch type MPKI
BRANCH_DIRECT_JUMP: 0
BRANCH_INDIRECT: 0
BRANCH_CONDITIONAL: 0.0321
BRANCH_DIRECT_CALL: 0
BRANCH_INDIRECT_CALL: 0
BRANCH_RETURN: 0

LLC TOTAL        ACCESS:    1385941 HIT:     843862 MISS:     542079
LLC LOAD         ACCESS:      62932 HIT:        391 MISS:      62541
LLC RFO          ACCESS:     623011 HIT:     218389 MISS:     404622
LLC PREFETCH     ACCESS:      75343 HIT:        506 MISS:      74837
LLC WRITE        ACCESS:     624217 HIT:     624205 MISS:         12
LLC TRANSLATION  ACCESS:        438 HIT:        371 MISS:         67
LLC PREFETCH REQUESTED:          0 ISSUED:          0 USEFUL:          0 USELESS:          0
LLC AVERAGE MISS LATENCY: 1748 cycles
cpu0_DTLB TOTAL        ACCESS:    4267735 HIT:    4244392 MISS:      23343
cpu0_DTLB LOAD         ACCESS:    4267735 HIT:    4244392 MISS:      23343
cpu0_DTLB RFO          ACCESS:          0 HIT:          0 MISS:          0
cpu0_DTLB PREFETCH     ACCESS:          0 HIT:          0 MISS:          0
cpu0_DTLB WRITE        ACCESS:          0 HIT:          0 MISS:          0
cpu0_DTLB TRANSLATION  ACCESS:          0 HIT:          0 MISS:          0
cpu0_DTLB PREFETCH REQUESTED:          0 ISSUED:          0 USEFUL:          0 USELESS:          0
cpu0_DTLB AVERAGE MISS LATENCY: 76.32 cycles
cpu0_ITLB TOTAL        ACCESS:          0 HIT:          0 MISS:          0
cpu0_ITLB LOAD         ACCESS:          0 HIT:          0 MISS:          0
cpu0_ITLB RFO          ACCESS:          0 HIT:          0 MISS:          0
cpu0_ITLB PREFETCH     ACCESS:          0 HIT:          0 MISS:          0
cpu0_ITLB WRITE        ACCESS:          0 HIT:          0 MISS:          0
cpu0_ITLB TRANSLATION  ACCESS:          0 HIT:          0 MISS:          0
cpu0_ITLB PREFETCH REQUESTED:          0 ISSUED:          0 USEFUL:          0 USELESS:          0
cpu0_ITLB AVERAGE MISS LATENCY: -nan cycles
cpu0_L1D TOTAL        ACCESS:    7157558 HIT:    5374357 MISS:    1783201
cpu0_L1D LOAD         ACCESS:    1711135 HIT:    1365362 MISS:     345773
cpu0_L1D RFO          ACCESS:          0 HIT:          0 MISS:          0
cpu0_L1D PREFETCH     ACCESS:    1715638 HIT:    1092047 MISS:     623591
cpu0_L1D WRITE        ACCESS:    3722309 HIT:    2916946 MISS:     805363
cpu0_L1D TRANSLATION  ACCESS:       8476 HIT:          2 MISS:       8474
cpu0_L1D PREFETCH REQUESTED:    2271785 ISSUED:    1715640 USEFUL:      52550 USELESS:       1266
cpu0_L1D AVERAGE MISS LATENCY: 491.6 cycles
cpu0_L1I TOTAL        ACCESS:          0 HIT:          0 MISS:          0
cpu0_L1I LOAD         ACCESS:          0 HIT:          0 MISS:          0
cpu0_L1I RFO          ACCESS:          0 HIT:          0 MISS:          0
cpu0_L1I PREFETCH     ACCESS:          0 HIT:          0 MISS:          0
cpu0_L1I WRITE        ACCESS:          0 HIT:          0 MISS:          0
cpu0_L1I TRANSLATION  ACCESS:          0 HIT:          0 MISS:          0
cpu0_L1I PREFETCH REQUESTED:          0 ISSUED:          0 USEFUL:          0 USELESS:          0
cpu0_L1I AVERAGE MISS LATENCY: -nan cycles
cpu0_L2C TOTAL        ACCESS:    1737703 HIT:     975522 MISS:     762181
cpu0_L2C LOAD         ACCESS:      82888 HIT:      19945 MISS:      62943
cpu0_L2C RFO          ACCESS:     768703 HIT:     145691 MISS:     623012
cpu0_L2C PREFETCH     ACCESS:     108944 HIT:      33156 MISS:      75788
cpu0_L2C WRITE        ACCESS:     768694 HIT:     768694 MISS:          0
cpu0_L2C TRANSLATION  ACCESS:       8474 HIT:       8036 MISS:        438
cpu0_L2C PREFETCH REQUESTED:      55129 ISSUED:      55129 USEFUL:      20197 USELESS:        170
cpu0_L2C AVERAGE MISS LATENCY: 1261 cycles
cpu0_STLB TOTAL        ACCESS:      15602 HIT:       7134 MISS:       8468
cpu0_STLB LOAD         ACCESS:      15602 HIT:       7134 MISS:       8468
cpu0_STLB RFO          ACCESS:          0 HIT:          0 MISS:          0
cpu0_STLB PREFETCH     ACCESS:          0 HIT:          0 MISS:          0
cpu0_STLB WRITE        ACCESS:          0 HIT:          0 MISS:          0
cpu0_STLB TRANSLATION  ACCESS:          0 HIT:          0 MISS:          0
cpu0_STLB PREFETCH REQUESTED:          0 ISSUED:          0 USEFUL:          0 USELESS:          0
cpu0_STLB AVERAGE MISS LATENCY: 215.2 cycles

DRAM Statistics

Channel 0 RQ ROW_BUFFER_HIT:      42632
  ROW_BUFFER_MISS:     499168
 AVG DBUS CONGESTED CYCLE: 3.982
WQ ROW_BUFFER_HIT: Channel 0 
  ROW_BUFFER_MISS:      18825
  FULL:     392552
