WARNING: physical memory size is smaller than virtual memory size.

*** ChampSim Multicore Out-of-Order Simulator ***
Warmup Instructions: 25000000
Simulation Instructions: 25000000
Number of CPUs: 1
Page size: 4096

Off-chip DRAM Size: 4 GiB Channels: 1 Width: 64-bit Data Race: 800 MT/s
Heartbeat CPU 0 instructions: 10000000 cycles: 2502357 heartbeat IPC: 3.996 cumulative IPC: 3.996 (Simulation time: 00 hr 00 min 33 sec)
Heartbeat CPU 0 instructions: 20000001 cycles: 5004377 heartbeat IPC: 3.997 cumulative IPC: 3.997 (Simulation time: 00 hr 01 min 10 sec)
Warmup finished CPU 0 instructions: 25000001 cycles: 6255515 cumulative IPC: 3.996 (Simulation time: 00 hr 01 min 28 sec)
Warmup complete CPU 0 instructions: 25000001 cycles: 6255515 cumulative IPC: 3.996 (Simulation time: 00 hr 01 min 28 sec)
Heartbeat CPU 0 instructions: 30000002 cycles: 18990686 heartbeat IPC: 0.715 cumulative IPC: 0.3926 (Simulation time: 00 hr 02 min 44 sec)
Heartbeat CPU 0 instructions: 40000000 cycles: 44221826 heartbeat IPC: 0.3963 cumulative IPC: 0.3951 (Simulation time: 00 hr 05 min 14 sec)
Heartbeat CPU 0 instructions: 50000001 cycles: 69541150 heartbeat IPC: 0.395 cumulative IPC: 0.395 (Simulation time: 00 hr 07 min 35 sec)
Simulation finished CPU 0 instructions: 25000000 cycles: 63285636 cumulative IPC: 0.395 (Simulation time: 00 hr 07 min 35 sec)
Simulation complete CPU 0 instructions: 25000000 cycles: 63285636 cumulative IPC: 0.395 (Simulation time: 00 hr 07 min 35 sec)

ChampSim completed all CPUs

=== Simulation ===
CPU 0 runs ./traces/620.omnetpp_s-874B.champsimtrace.xz
Region of Interest Statistics

CPU 0 cumulative IPC: 0.395 instructions: 25000000 cycles: 63285636
CPU 0 Branch Prediction Accuracy: 92.93% MPKI: 14.75 Average ROB Occupancy at Mispredict: 56.94
Branch type MPKI
BRANCH_DIRECT_JUMP: 0.944
BRANCH_INDIRECT: 0.117
BRANCH_CONDITIONAL: 12.6
BRANCH_DIRECT_CALL: 0.00312
BRANCH_INDIRECT_CALL: 0.731
BRANCH_RETURN: 0.39

LLC TOTAL        ACCESS:     882083 HIT:     419291 MISS:     462792
LLC LOAD         ACCESS:     287588 HIT:     102404 MISS:     185184
LLC RFO          ACCESS:      34289 HIT:      15572 MISS:      18717
LLC PREFETCH     ACCESS:     254905 HIT:      90764 MISS:     164141
LLC WRITE        ACCESS:     199300 HIT:     198873 MISS:        427
LLC TRANSLATION  ACCESS:     106001 HIT:      11678 MISS:      94323
LLC PREFETCH REQUESTED:          0 ISSUED:          0 USEFUL:          0 USELESS:          0
LLC AVERAGE MISS LATENCY: 385.7 cycles
cpu0_DTLB TOTAL        ACCESS:    7862806 HIT:    7256450 MISS:     606356
cpu0_DTLB LOAD         ACCESS:    7862806 HIT:    7256450 MISS:     606356
cpu0_DTLB RFO          ACCESS:          0 HIT:          0 MISS:          0
cpu0_DTLB PREFETCH     ACCESS:          0 HIT:          0 MISS:          0
cpu0_DTLB WRITE        ACCESS:          0 HIT:          0 MISS:          0
cpu0_DTLB TRANSLATION  ACCESS:          0 HIT:          0 MISS:          0
cpu0_DTLB PREFETCH REQUESTED:          0 ISSUED:          0 USEFUL:          0 USELESS:          0
cpu0_DTLB AVERAGE MISS LATENCY: 75.39 cycles
cpu0_ITLB TOTAL        ACCESS:    2032028 HIT:    1974981 MISS:      57047
cpu0_ITLB LOAD         ACCESS:    2032028 HIT:    1974981 MISS:      57047
cpu0_ITLB RFO          ACCESS:          0 HIT:          0 MISS:          0
cpu0_ITLB PREFETCH     ACCESS:          0 HIT:          0 MISS:          0
cpu0_ITLB WRITE        ACCESS:          0 HIT:          0 MISS:          0
cpu0_ITLB TRANSLATION  ACCESS:          0 HIT:          0 MISS:          0
cpu0_ITLB PREFETCH REQUESTED:          0 ISSUED:          0 USEFUL:          0 USELESS:          0
cpu0_ITLB AVERAGE MISS LATENCY: 5.565 cycles
cpu0_L1D TOTAL        ACCESS:   14704702 HIT:   13090088 MISS:    1614614
cpu0_L1D LOAD         ACCESS:    5564356 HIT:    4882678 MISS:     681678
cpu0_L1D RFO          ACCESS:          0 HIT:          0 MISS:          0
cpu0_L1D PREFETCH     ACCESS:    4381751 HIT:    3735554 MISS:     646197
cpu0_L1D WRITE        ACCESS:    4605258 HIT:    4460546 MISS:     144712
cpu0_L1D TRANSLATION  ACCESS:     153337 HIT:      11310 MISS:     142027
cpu0_L1D PREFETCH REQUESTED:    5596947 ISSUED:    4381747 USEFUL:      93891 USELESS:     285909
cpu0_L1D AVERAGE MISS LATENCY: 120.5 cycles
cpu0_L1I TOTAL        ACCESS:    2223424 HIT:    2210724 MISS:      12700
cpu0_L1I LOAD         ACCESS:    2223424 HIT:    2210724 MISS:      12700
cpu0_L1I RFO          ACCESS:          0 HIT:          0 MISS:          0
cpu0_L1I PREFETCH     ACCESS:          0 HIT:          0 MISS:          0
cpu0_L1I WRITE        ACCESS:          0 HIT:          0 MISS:          0
cpu0_L1I TRANSLATION  ACCESS:          0 HIT:          0 MISS:          0
cpu0_L1I PREFETCH REQUESTED:          0 ISSUED:          0 USEFUL:          0 USELESS:          0
cpu0_L1I AVERAGE MISS LATENCY: 27.41 cycles
cpu0_L2C TOTAL        ACCESS:    1285672 HIT:     601441 MISS:     684231
cpu0_L2C LOAD         ACCESS:     448049 HIT:     160450 MISS:     287599
cpu0_L2C RFO          ACCESS:      41940 HIT:       7651 MISS:      34289
cpu0_L2C PREFETCH     ACCESS:     384715 HIT:     129792 MISS:     254923
cpu0_L2C WRITE        ACCESS:     269190 HIT:     267770 MISS:       1420
cpu0_L2C TRANSLATION  ACCESS:     141778 HIT:      35778 MISS:     106000
cpu0_L2C PREFETCH REQUESTED:       4860 ISSUED:       4860 USEFUL:        945 USELESS:       3328
cpu0_L2C AVERAGE MISS LATENCY: 281.5 cycles
cpu0_STLB TOTAL        ACCESS:     508496 HIT:     398225 MISS:     110271
cpu0_STLB LOAD         ACCESS:     508496 HIT:     398225 MISS:     110271
cpu0_STLB RFO          ACCESS:          0 HIT:          0 MISS:          0
cpu0_STLB PREFETCH     ACCESS:          0 HIT:          0 MISS:          0
cpu0_STLB WRITE        ACCESS:          0 HIT:          0 MISS:          0
cpu0_STLB TRANSLATION  ACCESS:          0 HIT:          0 MISS:          0
cpu0_STLB PREFETCH REQUESTED:          0 ISSUED:          0 USEFUL:          0 USELESS:          0
cpu0_STLB AVERAGE MISS LATENCY: 391.5 cycles

DRAM Statistics

Channel 0 RQ ROW_BUFFER_HIT:      43152
  ROW_BUFFER_MISS:     419052
 AVG DBUS CONGESTED CYCLE: 3.948
WQ ROW_BUFFER_HIT: Channel 0 
  ROW_BUFFER_MISS:       3190
  FULL:     123093
