WARNING: physical memory size is smaller than virtual memory size.

*** ChampSim Multicore Out-of-Order Simulator ***
Warmup Instructions: 25000000
Simulation Instructions: 25000000
Number of CPUs: 1
Page size: 4096

Off-chip DRAM Size: 4 GiB Channels: 1 Width: 64-bit Data Race: 800 MT/s
Heartbeat CPU 0 instructions: 10000002 cycles: 2503325 heartbeat IPC: 3.995 cumulative IPC: 3.995 (Simulation time: 00 hr 00 min 33 sec)
Heartbeat CPU 0 instructions: 20000002 cycles: 5007267 heartbeat IPC: 3.994 cumulative IPC: 3.994 (Simulation time: 00 hr 01 min 08 sec)
Warmup finished CPU 0 instructions: 25000003 cycles: 6259712 cumulative IPC: 3.994 (Simulation time: 00 hr 01 min 26 sec)
Warmup complete CPU 0 instructions: 25000003 cycles: 6259712 cumulative IPC: 3.994 (Simulation time: 00 hr 01 min 26 sec)
Heartbeat CPU 0 instructions: 30000003 cycles: 19949740 heartbeat IPC: 0.6692 cumulative IPC: 0.3652 (Simulation time: 00 hr 02 min 44 sec)
Heartbeat CPU 0 instructions: 40000001 cycles: 48070716 heartbeat IPC: 0.3556 cumulative IPC: 0.3588 (Simulation time: 00 hr 05 min 19 sec)
Heartbeat CPU 0 instructions: 50000000 cycles: 76519275 heartbeat IPC: 0.3515 cumulative IPC: 0.3558 (Simulation time: 00 hr 07 min 50 sec)
Simulation finished CPU 0 instructions: 25000000 cycles: 70259575 cumulative IPC: 0.3558 (Simulation time: 00 hr 07 min 50 sec)
Simulation complete CPU 0 instructions: 25000000 cycles: 70259575 cumulative IPC: 0.3558 (Simulation time: 00 hr 07 min 50 sec)

ChampSim completed all CPUs

=== Simulation ===
CPU 0 runs ./traces/620.omnetpp_s-141B.champsimtrace.xz
Region of Interest Statistics

CPU 0 cumulative IPC: 0.3558 instructions: 25000000 cycles: 70259575
CPU 0 Branch Prediction Accuracy: 91.43% MPKI: 18.03 Average ROB Occupancy at Mispredict: 50.09
Branch type MPKI
BRANCH_DIRECT_JUMP: 0.836
BRANCH_INDIRECT: 0.351
BRANCH_CONDITIONAL: 15.5
BRANCH_DIRECT_CALL: 0.00252
BRANCH_INDIRECT_CALL: 0.858
BRANCH_RETURN: 0.445

LLC TOTAL        ACCESS:     914601 HIT:     397817 MISS:     516784
LLC LOAD         ACCESS:     297170 HIT:      93077 MISS:     204093
LLC RFO          ACCESS:      30681 HIT:      11869 MISS:      18812
LLC PREFETCH     ACCESS:     266183 HIT:      81634 MISS:     184549
LLC WRITE        ACCESS:     198965 HIT:     198444 MISS:        521
LLC TRANSLATION  ACCESS:     121602 HIT:      12793 MISS:     108809
LLC PREFETCH REQUESTED:          0 ISSUED:          0 USEFUL:          0 USELESS:          0
LLC AVERAGE MISS LATENCY: 386.8 cycles
cpu0_DTLB TOTAL        ACCESS:    8044889 HIT:    7409220 MISS:     635669
cpu0_DTLB LOAD         ACCESS:    8044889 HIT:    7409220 MISS:     635669
cpu0_DTLB RFO          ACCESS:          0 HIT:          0 MISS:          0
cpu0_DTLB PREFETCH     ACCESS:          0 HIT:          0 MISS:          0
cpu0_DTLB WRITE        ACCESS:          0 HIT:          0 MISS:          0
cpu0_DTLB TRANSLATION  ACCESS:          0 HIT:          0 MISS:          0
cpu0_DTLB PREFETCH REQUESTED:          0 ISSUED:          0 USEFUL:          0 USELESS:          0
cpu0_DTLB AVERAGE MISS LATENCY: 83.18 cycles
cpu0_ITLB TOTAL        ACCESS:    1966108 HIT:    1910099 MISS:      56009
cpu0_ITLB LOAD         ACCESS:    1966108 HIT:    1910099 MISS:      56009
cpu0_ITLB RFO          ACCESS:          0 HIT:          0 MISS:          0
cpu0_ITLB PREFETCH     ACCESS:          0 HIT:          0 MISS:          0
cpu0_ITLB WRITE        ACCESS:          0 HIT:          0 MISS:          0
cpu0_ITLB TRANSLATION  ACCESS:          0 HIT:          0 MISS:          0
cpu0_ITLB PREFETCH REQUESTED:          0 ISSUED:          0 USEFUL:          0 USELESS:          0
cpu0_ITLB AVERAGE MISS LATENCY: 4.894 cycles
cpu0_L1D TOTAL        ACCESS:   15139595 HIT:   13463123 MISS:    1676472
cpu0_L1D LOAD         ACCESS:    5667357 HIT:    4976479 MISS:     690878
cpu0_L1D RFO          ACCESS:          0 HIT:          0 MISS:          0
cpu0_L1D PREFETCH     ACCESS:    4705952 HIT:    4022741 MISS:     683211
cpu0_L1D WRITE        ACCESS:    4591458 HIT:    4449973 MISS:     141485
cpu0_L1D TRANSLATION  ACCESS:     174828 HIT:      13930 MISS:     160898
cpu0_L1D PREFETCH REQUESTED:    5784219 ISSUED:    4705944 USEFUL:      96574 USELESS:     317600
cpu0_L1D AVERAGE MISS LATENCY: 129.3 cycles
cpu0_L1I TOTAL        ACCESS:    2152467 HIT:    2134314 MISS:      18153
cpu0_L1I LOAD         ACCESS:    2152467 HIT:    2134314 MISS:      18153
cpu0_L1I RFO          ACCESS:          0 HIT:          0 MISS:          0
cpu0_L1I PREFETCH     ACCESS:          0 HIT:          0 MISS:          0
cpu0_L1I WRITE        ACCESS:          0 HIT:          0 MISS:          0
cpu0_L1I TRANSLATION  ACCESS:          0 HIT:          0 MISS:          0
cpu0_L1I PREFETCH REQUESTED:          0 ISSUED:          0 USEFUL:          0 USELESS:          0
cpu0_L1I AVERAGE MISS LATENCY: 26.24 cycles
cpu0_L2C TOTAL        ACCESS:    1373467 HIT:     656415 MISS:     717052
cpu0_L2C LOAD         ACCESS:     480467 HIT:     183294 MISS:     297173
cpu0_L2C RFO          ACCESS:      40105 HIT:       9424 MISS:      30681
cpu0_L2C PREFETCH     ACCESS:     418037 HIT:     151839 MISS:     266198
cpu0_L2C WRITE        ACCESS:     274211 HIT:     272813 MISS:       1398
cpu0_L2C TRANSLATION  ACCESS:     160647 HIT:      39045 MISS:     121602
cpu0_L2C PREFETCH REQUESTED:       3805 ISSUED:       3805 USEFUL:        624 USELESS:       2857
cpu0_L2C AVERAGE MISS LATENCY: 299.5 cycles
cpu0_STLB TOTAL        ACCESS:     538054 HIT:     414339 MISS:     123715
cpu0_STLB LOAD         ACCESS:     538054 HIT:     414339 MISS:     123715
cpu0_STLB RFO          ACCESS:          0 HIT:          0 MISS:          0
cpu0_STLB PREFETCH     ACCESS:          0 HIT:          0 MISS:          0
cpu0_STLB WRITE        ACCESS:          0 HIT:          0 MISS:          0
cpu0_STLB TRANSLATION  ACCESS:          0 HIT:          0 MISS:          0
cpu0_STLB PREFETCH REQUESTED:          0 ISSUED:          0 USEFUL:          0 USELESS:          0
cpu0_STLB AVERAGE MISS LATENCY: 405.2 cycles

DRAM Statistics

Channel 0 RQ ROW_BUFFER_HIT:      40505
  ROW_BUFFER_MISS:     475602
 AVG DBUS CONGESTED CYCLE: 3.949
WQ ROW_BUFFER_HIT: Channel 0 
  ROW_BUFFER_MISS:       3748
  FULL:     130621
