WARNING: physical memory size is smaller than virtual memory size.

*** ChampSim Multicore Out-of-Order Simulator ***
Warmup Instructions: 25000000
Simulation Instructions: 25000000
Number of CPUs: 1
Page size: 4096

Off-chip DRAM Size: 4 GiB Channels: 1 Width: 64-bit Data Race: 800 MT/s
Heartbeat CPU 0 instructions: 10000003 cycles: 2500092 heartbeat IPC: 4 cumulative IPC: 4 (Simulation time: 00 hr 00 min 28 sec)
Heartbeat CPU 0 instructions: 20000003 cycles: 5002128 heartbeat IPC: 3.997 cumulative IPC: 3.998 (Simulation time: 00 hr 00 min 54 sec)
Warmup finished CPU 0 instructions: 25000000 cycles: 6252194 cumulative IPC: 3.999 (Simulation time: 00 hr 01 min 07 sec)
Warmup complete CPU 0 instructions: 25000000 cycles: 6252194 cumulative IPC: 3.999 (Simulation time: 00 hr 01 min 07 sec)
Heartbeat CPU 0 instructions: 30000001 cycles: 10386750 heartbeat IPC: 1.857 cumulative IPC: 1.209 (Simulation time: 00 hr 01 min 43 sec)
Heartbeat CPU 0 instructions: 40000000 cycles: 47954981 heartbeat IPC: 0.2662 cumulative IPC: 0.3597 (Simulation time: 00 hr 05 min 50 sec)
Heartbeat CPU 0 instructions: 50000003 cycles: 69463328 heartbeat IPC: 0.4649 cumulative IPC: 0.3955 (Simulation time: 00 hr 08 min 17 sec)
Simulation finished CPU 0 instructions: 25000003 cycles: 63211135 cumulative IPC: 0.3955 (Simulation time: 00 hr 08 min 17 sec)
Simulation complete CPU 0 instructions: 25000003 cycles: 63211135 cumulative IPC: 0.3955 (Simulation time: 00 hr 08 min 17 sec)

ChampSim completed all CPUs

=== Simulation ===
CPU 0 runs ./traces/621.wrf_s-6673B.champsimtrace.xz
Region of Interest Statistics

CPU 0 cumulative IPC: 0.3955 instructions: 25000003 cycles: 63211135
CPU 0 Branch Prediction Accuracy: 96.82% MPKI: 2.139 Average ROB Occupancy at Mispredict: 299.9
Branch type MPKI
BRANCH_DIRECT_JUMP: 0.00072
BRANCH_INDIRECT: 0
BRANCH_CONDITIONAL: 2.12
BRANCH_DIRECT_CALL: 0.00672
BRANCH_INDIRECT_CALL: 0
BRANCH_RETURN: 0.0062

LLC TOTAL        ACCESS:     957743 HIT:     283340 MISS:     674403
LLC LOAD         ACCESS:     171208 HIT:      15043 MISS:     156165
LLC RFO          ACCESS:     134991 HIT:       6341 MISS:     128650
LLC PREFETCH     ACCESS:     405063 HIT:      16388 MISS:     388675
LLC WRITE        ACCESS:     245568 HIT:     245321 MISS:        247
LLC TRANSLATION  ACCESS:        913 HIT:        247 MISS:        666
LLC PREFETCH REQUESTED:          0 ISSUED:          0 USEFUL:          0 USELESS:          0
LLC AVERAGE MISS LATENCY: 1255 cycles
cpu0_DTLB TOTAL        ACCESS:    6199120 HIT:    6131590 MISS:      67530
cpu0_DTLB LOAD         ACCESS:    6199120 HIT:    6131590 MISS:      67530
cpu0_DTLB RFO          ACCESS:          0 HIT:          0 MISS:          0
cpu0_DTLB PREFETCH     ACCESS:          0 HIT:          0 MISS:          0
cpu0_DTLB WRITE        ACCESS:          0 HIT:          0 MISS:          0
cpu0_DTLB TRANSLATION  ACCESS:          0 HIT:          0 MISS:          0
cpu0_DTLB PREFETCH REQUESTED:          0 ISSUED:          0 USEFUL:          0 USELESS:          0
cpu0_DTLB AVERAGE MISS LATENCY: 28.64 cycles
cpu0_ITLB TOTAL        ACCESS:       7229 HIT:       7122 MISS:        107
cpu0_ITLB LOAD         ACCESS:       7229 HIT:       7122 MISS:        107
cpu0_ITLB RFO          ACCESS:          0 HIT:          0 MISS:          0
cpu0_ITLB PREFETCH     ACCESS:          0 HIT:          0 MISS:          0
cpu0_ITLB WRITE        ACCESS:          0 HIT:          0 MISS:          0
cpu0_ITLB TRANSLATION  ACCESS:          0 HIT:          0 MISS:          0
cpu0_ITLB PREFETCH REQUESTED:          0 ISSUED:          0 USEFUL:          0 USELESS:          0
cpu0_ITLB AVERAGE MISS LATENCY: 218.4 cycles
cpu0_L1D TOTAL        ACCESS:   10384851 HIT:    6463011 MISS:    3921840
cpu0_L1D LOAD         ACCESS:    5505215 HIT:    3715899 MISS:    1789316
cpu0_L1D RFO          ACCESS:          0 HIT:          0 MISS:          0
cpu0_L1D PREFETCH     ACCESS:    3007565 HIT:    1683747 MISS:    1323818
cpu0_L1D WRITE        ACCESS:    1864219 HIT:    1059192 MISS:     805027
cpu0_L1D TRANSLATION  ACCESS:       7852 HIT:       4173 MISS:       3679
cpu0_L1D PREFETCH REQUESTED:   17158509 ISSUED:    3007570 USEFUL:     301265 USELESS:      22593
cpu0_L1D AVERAGE MISS LATENCY: 148.8 cycles
cpu0_L1I TOTAL        ACCESS:       9487 HIT:       7809 MISS:       1678
cpu0_L1I LOAD         ACCESS:       9487 HIT:       7809 MISS:       1678
cpu0_L1I RFO          ACCESS:          0 HIT:          0 MISS:          0
cpu0_L1I PREFETCH     ACCESS:          0 HIT:          0 MISS:          0
cpu0_L1I WRITE        ACCESS:          0 HIT:          0 MISS:          0
cpu0_L1I TRANSLATION  ACCESS:          0 HIT:          0 MISS:          0
cpu0_L1I PREFETCH REQUESTED:          0 ISSUED:          0 USEFUL:          0 USELESS:          0
cpu0_L1I AVERAGE MISS LATENCY: 418.2 cycles
cpu0_L2C TOTAL        ACCESS:    1240435 HIT:     487337 MISS:     753098
cpu0_L2C LOAD         ACCESS:     226196 HIT:      44397 MISS:     181799
cpu0_L2C RFO          ACCESS:     162265 HIT:      27249 MISS:     135016
cpu0_L2C PREFETCH     ACCESS:     546749 HIT:     111465 MISS:     435284
cpu0_L2C WRITE        ACCESS:     301859 HIT:     301773 MISS:         86
cpu0_L2C TRANSLATION  ACCESS:       3366 HIT:       2453 MISS:        913
cpu0_L2C PREFETCH REQUESTED:     222910 ISSUED:     222894 USEFUL:      23878 USELESS:      10055
cpu0_L2C AVERAGE MISS LATENCY: 1039 cycles
cpu0_STLB TOTAL        ACCESS:      23593 HIT:      15690 MISS:       7903
cpu0_STLB LOAD         ACCESS:      23593 HIT:      15690 MISS:       7903
cpu0_STLB RFO          ACCESS:          0 HIT:          0 MISS:          0
cpu0_STLB PREFETCH     ACCESS:          0 HIT:          0 MISS:          0
cpu0_STLB WRITE        ACCESS:          0 HIT:          0 MISS:          0
cpu0_STLB TRANSLATION  ACCESS:          0 HIT:          0 MISS:          0
cpu0_STLB PREFETCH REQUESTED:          0 ISSUED:          0 USEFUL:          0 USELESS:          0
cpu0_STLB AVERAGE MISS LATENCY: 352 cycles

DRAM Statistics

Channel 0 RQ ROW_BUFFER_HIT:     166667
  ROW_BUFFER_MISS:     401787
 AVG DBUS CONGESTED CYCLE: 3.924
WQ ROW_BUFFER_HIT: Channel 0 
  ROW_BUFFER_MISS:      18947
  FULL:     225343
