WARNING: physical memory size is smaller than virtual memory size.

*** ChampSim Multicore Out-of-Order Simulator ***
Warmup Instructions: 25000000
Simulation Instructions: 25000000
Number of CPUs: 1
Page size: 4096

Off-chip DRAM Size: 4 GiB Channels: 1 Width: 64-bit Data Race: 800 MT/s
Heartbeat CPU 0 instructions: 10000002 cycles: 2500210 heartbeat IPC: 4 cumulative IPC: 4 (Simulation time: 00 hr 00 min 29 sec)
Heartbeat CPU 0 instructions: 20000003 cycles: 5006997 heartbeat IPC: 3.989 cumulative IPC: 3.994 (Simulation time: 00 hr 00 min 58 sec)
Warmup finished CPU 0 instructions: 25000003 cycles: 6257015 cumulative IPC: 3.996 (Simulation time: 00 hr 01 min 12 sec)
Warmup complete CPU 0 instructions: 25000003 cycles: 6257015 cumulative IPC: 3.996 (Simulation time: 00 hr 01 min 12 sec)
Heartbeat CPU 0 instructions: 30000002 cycles: 9732477 heartbeat IPC: 2.116 cumulative IPC: 1.439 (Simulation time: 00 hr 01 min 41 sec)
Heartbeat CPU 0 instructions: 40000003 cycles: 16587199 heartbeat IPC: 1.459 cumulative IPC: 1.452 (Simulation time: 00 hr 02 min 35 sec)
Heartbeat CPU 0 instructions: 50000003 cycles: 21245003 heartbeat IPC: 2.147 cumulative IPC: 1.668 (Simulation time: 00 hr 03 min 17 sec)
Simulation finished CPU 0 instructions: 25000000 cycles: 14987989 cumulative IPC: 1.668 (Simulation time: 00 hr 03 min 17 sec)
Simulation complete CPU 0 instructions: 25000000 cycles: 14987989 cumulative IPC: 1.668 (Simulation time: 00 hr 03 min 17 sec)

ChampSim completed all CPUs

=== Simulation ===
CPU 0 runs ./traces/623.xalancbmk_s-325B.champsimtrace.xz
Region of Interest Statistics

CPU 0 cumulative IPC: 1.668 instructions: 25000000 cycles: 14987989
CPU 0 Branch Prediction Accuracy: 95.9% MPKI: 12.3 Average ROB Occupancy at Mispredict: 22.22
Branch type MPKI
BRANCH_DIRECT_JUMP: 0.119
BRANCH_INDIRECT: 0.389
BRANCH_CONDITIONAL: 9.83
BRANCH_DIRECT_CALL: 0
BRANCH_INDIRECT_CALL: 0.401
BRANCH_RETURN: 1.57

LLC TOTAL        ACCESS:     225585 HIT:     184801 MISS:      40784
LLC LOAD         ACCESS:     112442 HIT:     110596 MISS:       1846
LLC RFO          ACCESS:      33866 HIT:        824 MISS:      33042
LLC PREFETCH     ACCESS:      33146 HIT:      27646 MISS:       5500
LLC WRITE        ACCESS:      45600 HIT:      45441 MISS:        159
LLC TRANSLATION  ACCESS:        531 HIT:        294 MISS:        237
LLC PREFETCH REQUESTED:          0 ISSUED:          0 USEFUL:          0 USELESS:          0
LLC AVERAGE MISS LATENCY: 452.7 cycles
cpu0_DTLB TOTAL        ACCESS:    7070763 HIT:    6505961 MISS:     564802
cpu0_DTLB LOAD         ACCESS:    7070763 HIT:    6505961 MISS:     564802
cpu0_DTLB RFO          ACCESS:          0 HIT:          0 MISS:          0
cpu0_DTLB PREFETCH     ACCESS:          0 HIT:          0 MISS:          0
cpu0_DTLB WRITE        ACCESS:          0 HIT:          0 MISS:          0
cpu0_DTLB TRANSLATION  ACCESS:          0 HIT:          0 MISS:          0
cpu0_DTLB PREFETCH REQUESTED:          0 ISSUED:          0 USEFUL:          0 USELESS:          0
cpu0_DTLB AVERAGE MISS LATENCY: 4.075 cycles
cpu0_ITLB TOTAL        ACCESS:     989134 HIT:     963910 MISS:      25224
cpu0_ITLB LOAD         ACCESS:     989134 HIT:     963910 MISS:      25224
cpu0_ITLB RFO          ACCESS:          0 HIT:          0 MISS:          0
cpu0_ITLB PREFETCH     ACCESS:          0 HIT:          0 MISS:          0
cpu0_ITLB WRITE        ACCESS:          0 HIT:          0 MISS:          0
cpu0_ITLB TRANSLATION  ACCESS:          0 HIT:          0 MISS:          0
cpu0_ITLB PREFETCH REQUESTED:          0 ISSUED:          0 USEFUL:          0 USELESS:          0
cpu0_ITLB AVERAGE MISS LATENCY: 2.195 cycles
cpu0_L1D TOTAL        ACCESS:   13426363 HIT:    8815728 MISS:    4610635
cpu0_L1D LOAD         ACCESS:    6139264 HIT:    3714397 MISS:    2424867
cpu0_L1D RFO          ACCESS:          0 HIT:          0 MISS:          0
cpu0_L1D PREFETCH     ACCESS:    5382837 HIT:    3383203 MISS:    1999634
cpu0_L1D WRITE        ACCESS:    1903654 HIT:    1718126 MISS:     185528
cpu0_L1D TRANSLATION  ACCESS:        608 HIT:          2 MISS:        606
cpu0_L1D PREFETCH REQUESTED:    6222653 ISSUED:    5382837 USEFUL:     150699 USELESS:     149394
cpu0_L1D AVERAGE MISS LATENCY: 6.641 cycles
cpu0_L1I TOTAL        ACCESS:    1079196 HIT:     983412 MISS:      95784
cpu0_L1I LOAD         ACCESS:    1079196 HIT:     983412 MISS:      95784
cpu0_L1I RFO          ACCESS:          0 HIT:          0 MISS:          0
cpu0_L1I PREFETCH     ACCESS:          0 HIT:          0 MISS:          0
cpu0_L1I WRITE        ACCESS:          0 HIT:          0 MISS:          0
cpu0_L1I TRANSLATION  ACCESS:          0 HIT:          0 MISS:          0
cpu0_L1I PREFETCH REQUESTED:          0 ISSUED:          0 USEFUL:          0 USELESS:          0
cpu0_L1I AVERAGE MISS LATENCY: 7.728 cycles
cpu0_L2C TOTAL        ACCESS:    1878424 HIT:    1673676 MISS:     204748
cpu0_L2C LOAD         ACCESS:     887344 HIT:     768082 MISS:     119262
cpu0_L2C RFO          ACCESS:      47713 HIT:      13811 MISS:      33902
cpu0_L2C PREFETCH     ACCESS:     849482 HIT:     798455 MISS:      51027
cpu0_L2C WRITE        ACCESS:      93279 HIT:      93253 MISS:         26
cpu0_L2C TRANSLATION  ACCESS:        606 HIT:         75 MISS:        531
cpu0_L2C PREFETCH REQUESTED:     549410 ISSUED:     549382 USEFUL:       9272 USELESS:       1856
cpu0_L2C AVERAGE MISS LATENCY: 107.3 cycles
cpu0_STLB TOTAL        ACCESS:     354786 HIT:     354178 MISS:        608
cpu0_STLB LOAD         ACCESS:     354786 HIT:     354178 MISS:        608
cpu0_STLB RFO          ACCESS:          0 HIT:          0 MISS:          0
cpu0_STLB PREFETCH     ACCESS:          0 HIT:          0 MISS:          0
cpu0_STLB WRITE        ACCESS:          0 HIT:          0 MISS:          0
cpu0_STLB TRANSLATION  ACCESS:          0 HIT:          0 MISS:          0
cpu0_STLB PREFETCH REQUESTED:          0 ISSUED:          0 USEFUL:          0 USELESS:          0
cpu0_STLB AVERAGE MISS LATENCY: 298 cycles

DRAM Statistics

Channel 0 RQ ROW_BUFFER_HIT:      20118
  ROW_BUFFER_MISS:      20505
 AVG DBUS CONGESTED CYCLE: 3.98
WQ ROW_BUFFER_HIT: Channel 0 
  ROW_BUFFER_MISS:       4027
  FULL:      34889
