WARNING: physical memory size is smaller than virtual memory size.

*** ChampSim Multicore Out-of-Order Simulator ***
Warmup Instructions: 25000000
Simulation Instructions: 25000000
Number of CPUs: 1
Page size: 4096

Off-chip DRAM Size: 4 GiB Channels: 1 Width: 64-bit Data Race: 800 MT/s
Heartbeat CPU 0 instructions: 10000003 cycles: 2500186 heartbeat IPC: 4 cumulative IPC: 4 (Simulation time: 00 hr 00 min 29 sec)
Heartbeat CPU 0 instructions: 20000003 cycles: 5000186 heartbeat IPC: 4 cumulative IPC: 4 (Simulation time: 00 hr 01 min 00 sec)
Warmup finished CPU 0 instructions: 25000003 cycles: 6253614 cumulative IPC: 3.998 (Simulation time: 00 hr 01 min 16 sec)
Warmup complete CPU 0 instructions: 25000003 cycles: 6253614 cumulative IPC: 3.998 (Simulation time: 00 hr 01 min 16 sec)
Heartbeat CPU 0 instructions: 30000000 cycles: 9255293 heartbeat IPC: 2.35 cumulative IPC: 1.666 (Simulation time: 00 hr 01 min 42 sec)
Heartbeat CPU 0 instructions: 40000001 cycles: 16700141 heartbeat IPC: 1.343 cumulative IPC: 1.436 (Simulation time: 00 hr 02 min 45 sec)
Heartbeat CPU 0 instructions: 50000000 cycles: 23767539 heartbeat IPC: 1.415 cumulative IPC: 1.427 (Simulation time: 00 hr 03 min 46 sec)
Simulation finished CPU 0 instructions: 25000000 cycles: 17513938 cumulative IPC: 1.427 (Simulation time: 00 hr 03 min 46 sec)
Simulation complete CPU 0 instructions: 25000000 cycles: 17513938 cumulative IPC: 1.427 (Simulation time: 00 hr 03 min 46 sec)

ChampSim completed all CPUs

=== Simulation ===
CPU 0 runs ./traces/623.xalancbmk_s-592B.champsimtrace.xz
Region of Interest Statistics

CPU 0 cumulative IPC: 1.427 instructions: 25000000 cycles: 17513938
CPU 0 Branch Prediction Accuracy: 93.12% MPKI: 17.45 Average ROB Occupancy at Mispredict: 21.58
Branch type MPKI
BRANCH_DIRECT_JUMP: 0.18
BRANCH_INDIRECT: 0.561
BRANCH_CONDITIONAL: 13.8
BRANCH_DIRECT_CALL: 0.00256
BRANCH_INDIRECT_CALL: 0.612
BRANCH_RETURN: 2.31

LLC TOTAL        ACCESS:     871847 HIT:     807584 MISS:      64263
LLC LOAD         ACCESS:     608191 HIT:     606131 MISS:       2060
LLC RFO          ACCESS:      60686 HIT:       6802 MISS:      53884
LLC PREFETCH     ACCESS:      95310 HIT:      88478 MISS:       6832
LLC WRITE        ACCESS:      83717 HIT:      83681 MISS:         36
LLC TRANSLATION  ACCESS:      23943 HIT:      22492 MISS:       1451
LLC PREFETCH REQUESTED:          0 ISSUED:          0 USEFUL:          0 USELESS:          0
LLC AVERAGE MISS LATENCY: 460.3 cycles
cpu0_DTLB TOTAL        ACCESS:    6610236 HIT:    5598831 MISS:    1011405
cpu0_DTLB LOAD         ACCESS:    6610236 HIT:    5598831 MISS:    1011405
cpu0_DTLB RFO          ACCESS:          0 HIT:          0 MISS:          0
cpu0_DTLB PREFETCH     ACCESS:          0 HIT:          0 MISS:          0
cpu0_DTLB WRITE        ACCESS:          0 HIT:          0 MISS:          0
cpu0_DTLB TRANSLATION  ACCESS:          0 HIT:          0 MISS:          0
cpu0_DTLB PREFETCH REQUESTED:          0 ISSUED:          0 USEFUL:          0 USELESS:          0
cpu0_DTLB AVERAGE MISS LATENCY: 5.208 cycles
cpu0_ITLB TOTAL        ACCESS:    1456354 HIT:    1418440 MISS:      37914
cpu0_ITLB LOAD         ACCESS:    1456354 HIT:    1418440 MISS:      37914
cpu0_ITLB RFO          ACCESS:          0 HIT:          0 MISS:          0
cpu0_ITLB PREFETCH     ACCESS:          0 HIT:          0 MISS:          0
cpu0_ITLB WRITE        ACCESS:          0 HIT:          0 MISS:          0
cpu0_ITLB TRANSLATION  ACCESS:          0 HIT:          0 MISS:          0
cpu0_ITLB PREFETCH REQUESTED:          0 ISSUED:          0 USEFUL:          0 USELESS:          0
cpu0_ITLB AVERAGE MISS LATENCY: 3.14 cycles
cpu0_L1D TOTAL        ACCESS:   11976860 HIT:    8520119 MISS:    3456741
cpu0_L1D LOAD         ACCESS:    5244133 HIT:    3086148 MISS:    2157985
cpu0_L1D RFO          ACCESS:          0 HIT:          0 MISS:          0
cpu0_L1D PREFETCH     ACCESS:    3885998 HIT:    2895897 MISS:     990101
cpu0_L1D WRITE        ACCESS:    2809146 HIT:    2537074 MISS:     272072
cpu0_L1D TRANSLATION  ACCESS:      37583 HIT:       1000 MISS:      36583
cpu0_L1D PREFETCH REQUESTED:    5857591 ISSUED:    3885997 USEFUL:      65672 USELESS:     157689
cpu0_L1D AVERAGE MISS LATENCY: 17.29 cycles
cpu0_L1I TOTAL        ACCESS:    1588661 HIT:    1444462 MISS:     144199
cpu0_L1I LOAD         ACCESS:    1588661 HIT:    1444462 MISS:     144199
cpu0_L1I RFO          ACCESS:          0 HIT:          0 MISS:          0
cpu0_L1I PREFETCH     ACCESS:          0 HIT:          0 MISS:          0
cpu0_L1I WRITE        ACCESS:          0 HIT:          0 MISS:          0
cpu0_L1I TRANSLATION  ACCESS:          0 HIT:          0 MISS:          0
cpu0_L1I PREFETCH REQUESTED:          0 ISSUED:          0 USEFUL:          0 USELESS:          0
cpu0_L1I AVERAGE MISS LATENCY: 8.75 cycles
cpu0_L2C TOTAL        ACCESS:    2068212 HIT:    1241816 MISS:     826396
cpu0_L2C LOAD         ACCESS:    1370354 HIT:     751904 MISS:     618450
cpu0_L2C RFO          ACCESS:      70765 HIT:      10025 MISS:      60740
cpu0_L2C PREFETCH     ACCESS:     475552 HIT:     352299 MISS:     123253
cpu0_L2C WRITE        ACCESS:     114976 HIT:     114966 MISS:         10
cpu0_L2C TRANSLATION  ACCESS:      36565 HIT:      12622 MISS:      23943
cpu0_L2C PREFETCH REQUESTED:     252429 ISSUED:     252266 USEFUL:      14024 USELESS:       3397
cpu0_L2C AVERAGE MISS LATENCY: 54.76 cycles
cpu0_STLB TOTAL        ACCESS:     621119 HIT:     583719 MISS:      37400
cpu0_STLB LOAD         ACCESS:     621119 HIT:     583719 MISS:      37400
cpu0_STLB RFO          ACCESS:          0 HIT:          0 MISS:          0
cpu0_STLB PREFETCH     ACCESS:          0 HIT:          0 MISS:          0
cpu0_STLB WRITE        ACCESS:          0 HIT:          0 MISS:          0
cpu0_STLB TRANSLATION  ACCESS:          0 HIT:          0 MISS:          0
cpu0_STLB PREFETCH REQUESTED:          0 ISSUED:          0 USEFUL:          0 USELESS:          0
cpu0_STLB AVERAGE MISS LATENCY: 43.98 cycles

DRAM Statistics

Channel 0 RQ ROW_BUFFER_HIT:      38719
  ROW_BUFFER_MISS:      25503
 AVG DBUS CONGESTED CYCLE: 3.977
WQ ROW_BUFFER_HIT: Channel 0 
  ROW_BUFFER_MISS:       3961
  FULL:      39618
