WARNING: physical memory size is smaller than virtual memory size.

*** ChampSim Multicore Out-of-Order Simulator ***
Warmup Instructions: 25000000
Simulation Instructions: 25000000
Number of CPUs: 1
Page size: 4096

Off-chip DRAM Size: 4 GiB Channels: 1 Width: 64-bit Data Race: 800 MT/s
Heartbeat CPU 0 instructions: 10000002 cycles: 2558161 heartbeat IPC: 3.909 cumulative IPC: 3.909 (Simulation time: 00 hr 00 min 25 sec)
Heartbeat CPU 0 instructions: 20000003 cycles: 5121607 heartbeat IPC: 3.901 cumulative IPC: 3.905 (Simulation time: 00 hr 00 min 52 sec)
Warmup finished CPU 0 instructions: 25000001 cycles: 6398075 cumulative IPC: 3.907 (Simulation time: 00 hr 01 min 07 sec)
Warmup complete CPU 0 instructions: 25000001 cycles: 6398075 cumulative IPC: 3.907 (Simulation time: 00 hr 01 min 07 sec)
Heartbeat CPU 0 instructions: 30000001 cycles: 10378219 heartbeat IPC: 1.902 cumulative IPC: 1.256 (Simulation time: 00 hr 01 min 39 sec)
Heartbeat CPU 0 instructions: 40000000 cycles: 17015282 heartbeat IPC: 1.507 cumulative IPC: 1.413 (Simulation time: 00 hr 02 min 34 sec)
Heartbeat CPU 0 instructions: 50000003 cycles: 24679043 heartbeat IPC: 1.305 cumulative IPC: 1.368 (Simulation time: 00 hr 03 min 39 sec)
Simulation finished CPU 0 instructions: 25000002 cycles: 18280969 cumulative IPC: 1.368 (Simulation time: 00 hr 03 min 39 sec)
Simulation complete CPU 0 instructions: 25000002 cycles: 18280969 cumulative IPC: 1.368 (Simulation time: 00 hr 03 min 39 sec)

ChampSim completed all CPUs

=== Simulation ===
CPU 0 runs ./traces/627.cam4_s-490B.champsimtrace.xz
Region of Interest Statistics

CPU 0 cumulative IPC: 1.368 instructions: 25000002 cycles: 18280969
CPU 0 Branch Prediction Accuracy: 90.28% MPKI: 9.288 Average ROB Occupancy at Mispredict: 32.63
Branch type MPKI
BRANCH_DIRECT_JUMP: 0.00504
BRANCH_INDIRECT: 0
BRANCH_CONDITIONAL: 9.28
BRANCH_DIRECT_CALL: 0
BRANCH_INDIRECT_CALL: 0
BRANCH_RETURN: 0

LLC TOTAL        ACCESS:     620679 HIT:     497319 MISS:     123360
LLC LOAD         ACCESS:      74960 HIT:      62241 MISS:      12719
LLC RFO          ACCESS:     128236 HIT:      62403 MISS:      65833
LLC PREFETCH     ACCESS:     240781 HIT:     196003 MISS:      44778
LLC WRITE        ACCESS:     176671 HIT:     176671 MISS:          0
LLC TRANSLATION  ACCESS:         31 HIT:          1 MISS:         30
LLC PREFETCH REQUESTED:          0 ISSUED:          0 USEFUL:          0 USELESS:          0
LLC AVERAGE MISS LATENCY: 1033 cycles
cpu0_DTLB TOTAL        ACCESS:    3994591 HIT:    3972156 MISS:      22435
cpu0_DTLB LOAD         ACCESS:    3994591 HIT:    3972156 MISS:      22435
cpu0_DTLB RFO          ACCESS:          0 HIT:          0 MISS:          0
cpu0_DTLB PREFETCH     ACCESS:          0 HIT:          0 MISS:          0
cpu0_DTLB WRITE        ACCESS:          0 HIT:          0 MISS:          0
cpu0_DTLB TRANSLATION  ACCESS:          0 HIT:          0 MISS:          0
cpu0_DTLB PREFETCH REQUESTED:          0 ISSUED:          0 USEFUL:          0 USELESS:          0
cpu0_DTLB AVERAGE MISS LATENCY: 4.469 cycles
cpu0_ITLB TOTAL        ACCESS:       4595 HIT:       4595 MISS:          0
cpu0_ITLB LOAD         ACCESS:       4595 HIT:       4595 MISS:          0
cpu0_ITLB RFO          ACCESS:          0 HIT:          0 MISS:          0
cpu0_ITLB PREFETCH     ACCESS:          0 HIT:          0 MISS:          0
cpu0_ITLB WRITE        ACCESS:          0 HIT:          0 MISS:          0
cpu0_ITLB TRANSLATION  ACCESS:          0 HIT:          0 MISS:          0
cpu0_ITLB PREFETCH REQUESTED:          0 ISSUED:          0 USEFUL:          0 USELESS:          0
cpu0_ITLB AVERAGE MISS LATENCY: -nan cycles
cpu0_L1D TOTAL        ACCESS:    6912912 HIT:    4972034 MISS:    1940878
cpu0_L1D LOAD         ACCESS:    3099948 HIT:    2460207 MISS:     639741
cpu0_L1D RFO          ACCESS:          0 HIT:          0 MISS:          0
cpu0_L1D PREFETCH     ACCESS:    2175807 HIT:    1647926 MISS:     527881
cpu0_L1D WRITE        ACCESS:    1636693 HIT:     863504 MISS:     773189
cpu0_L1D TRANSLATION  ACCESS:        464 HIT:        397 MISS:         67
cpu0_L1D PREFETCH REQUESTED:    5233042 ISSUED:    2175804 USEFUL:     148324 USELESS:       3105
cpu0_L1D AVERAGE MISS LATENCY: 60.64 cycles
cpu0_L1I TOTAL        ACCESS:       5703 HIT:       4545 MISS:       1158
cpu0_L1I LOAD         ACCESS:       5703 HIT:       4545 MISS:       1158
cpu0_L1I RFO          ACCESS:          0 HIT:          0 MISS:          0
cpu0_L1I PREFETCH     ACCESS:          0 HIT:          0 MISS:          0
cpu0_L1I WRITE        ACCESS:          0 HIT:          0 MISS:          0
cpu0_L1I TRANSLATION  ACCESS:          0 HIT:          0 MISS:          0
cpu0_L1I PREFETCH REQUESTED:          0 ISSUED:          0 USEFUL:          0 USELESS:          0
cpu0_L1I AVERAGE MISS LATENCY: 243.9 cycles
cpu0_L2C TOTAL        ACCESS:     975634 HIT:     428293 MISS:     547341
cpu0_L2C LOAD         ACCESS:     166134 HIT:      70527 MISS:      95607
cpu0_L2C RFO          ACCESS:     130214 HIT:       1978 MISS:     128236
cpu0_L2C PREFETCH     ACCESS:     491191 HIT:     168291 MISS:     322900
cpu0_L2C WRITE        ACCESS:     188028 HIT:     187461 MISS:        567
cpu0_L2C TRANSLATION  ACCESS:         67 HIT:         36 MISS:         31
cpu0_L2C PREFETCH REQUESTED:     352128 ISSUED:     339749 USEFUL:      88381 USELESS:       9162
cpu0_L2C AVERAGE MISS LATENCY: 243 cycles
cpu0_STLB TOTAL        ACCESS:       7767 HIT:       7303 MISS:        464
cpu0_STLB LOAD         ACCESS:       7767 HIT:       7303 MISS:        464
cpu0_STLB RFO          ACCESS:          0 HIT:          0 MISS:          0
cpu0_STLB PREFETCH     ACCESS:          0 HIT:          0 MISS:          0
cpu0_STLB WRITE        ACCESS:          0 HIT:          0 MISS:          0
cpu0_STLB TRANSLATION  ACCESS:          0 HIT:          0 MISS:          0
cpu0_STLB PREFETCH REQUESTED:          0 ISSUED:          0 USEFUL:          0 USELESS:          0
cpu0_STLB AVERAGE MISS LATENCY: 288.2 cycles

DRAM Statistics

Channel 0 RQ ROW_BUFFER_HIT:      41995
  ROW_BUFFER_MISS:      74895
 AVG DBUS CONGESTED CYCLE: 3.949
WQ ROW_BUFFER_HIT: Channel 0 
  ROW_BUFFER_MISS:      11841
  FULL:      76828
