WARNING: physical memory size is smaller than virtual memory size.

*** ChampSim Multicore Out-of-Order Simulator ***
Warmup Instructions: 25000000
Simulation Instructions: 25000000
Number of CPUs: 1
Page size: 4096

Off-chip DRAM Size: 4 GiB Channels: 1 Width: 64-bit Data Race: 800 MT/s
Heartbeat CPU 0 instructions: 10000002 cycles: 2568794 heartbeat IPC: 3.893 cumulative IPC: 3.893 (Simulation time: 00 hr 00 min 25 sec)
Heartbeat CPU 0 instructions: 20000003 cycles: 5137457 heartbeat IPC: 3.893 cumulative IPC: 3.893 (Simulation time: 00 hr 00 min 52 sec)
Warmup finished CPU 0 instructions: 25000002 cycles: 6421727 cumulative IPC: 3.893 (Simulation time: 00 hr 01 min 05 sec)
Warmup complete CPU 0 instructions: 25000002 cycles: 6421727 cumulative IPC: 3.893 (Simulation time: 00 hr 01 min 05 sec)
Heartbeat CPU 0 instructions: 30000000 cycles: 8703570 heartbeat IPC: 2.804 cumulative IPC: 2.191 (Simulation time: 00 hr 01 min 26 sec)
Heartbeat CPU 0 instructions: 40000002 cycles: 13302219 heartbeat IPC: 2.175 cumulative IPC: 2.18 (Simulation time: 00 hr 02 min 07 sec)
Heartbeat CPU 0 instructions: 50000001 cycles: 17803847 heartbeat IPC: 2.221 cumulative IPC: 2.196 (Simulation time: 00 hr 02 min 49 sec)
Simulation finished CPU 0 instructions: 25000003 cycles: 11382122 cumulative IPC: 2.196 (Simulation time: 00 hr 02 min 49 sec)
Simulation complete CPU 0 instructions: 25000003 cycles: 11382122 cumulative IPC: 2.196 (Simulation time: 00 hr 02 min 49 sec)

ChampSim completed all CPUs

=== Simulation ===
CPU 0 runs ./traces/628.pop2_s-17B.champsimtrace.xz
Region of Interest Statistics

CPU 0 cumulative IPC: 2.196 instructions: 25000003 cycles: 11382122
CPU 0 Branch Prediction Accuracy: 96.47% MPKI: 4.044 Average ROB Occupancy at Mispredict: 109.5
Branch type MPKI
BRANCH_DIRECT_JUMP: 0.0513
BRANCH_INDIRECT: 0.00164
BRANCH_CONDITIONAL: 3.99
BRANCH_DIRECT_CALL: 0
BRANCH_INDIRECT_CALL: 0
BRANCH_RETURN: 0

LLC TOTAL        ACCESS:     465327 HIT:     388270 MISS:      77057
LLC LOAD         ACCESS:      89973 HIT:      78743 MISS:      11230
LLC RFO          ACCESS:      85549 HIT:      80226 MISS:       5323
LLC PREFETCH     ACCESS:     158864 HIT:      99283 MISS:      59581
LLC WRITE        ACCESS:     129485 HIT:     129480 MISS:          5
LLC TRANSLATION  ACCESS:       1456 HIT:        538 MISS:        918
LLC PREFETCH REQUESTED:          0 ISSUED:          0 USEFUL:          0 USELESS:          0
LLC AVERAGE MISS LATENCY: 426.8 cycles
cpu0_DTLB TOTAL        ACCESS:    5451637 HIT:    5401115 MISS:      50522
cpu0_DTLB LOAD         ACCESS:    5451637 HIT:    5401115 MISS:      50522
cpu0_DTLB RFO          ACCESS:          0 HIT:          0 MISS:          0
cpu0_DTLB PREFETCH     ACCESS:          0 HIT:          0 MISS:          0
cpu0_DTLB WRITE        ACCESS:          0 HIT:          0 MISS:          0
cpu0_DTLB TRANSLATION  ACCESS:          0 HIT:          0 MISS:          0
cpu0_DTLB PREFETCH REQUESTED:          0 ISSUED:          0 USEFUL:          0 USELESS:          0
cpu0_DTLB AVERAGE MISS LATENCY: 13.1 cycles
cpu0_ITLB TOTAL        ACCESS:      92855 HIT:      89039 MISS:       3816
cpu0_ITLB LOAD         ACCESS:      92855 HIT:      89039 MISS:       3816
cpu0_ITLB RFO          ACCESS:          0 HIT:          0 MISS:          0
cpu0_ITLB PREFETCH     ACCESS:          0 HIT:          0 MISS:          0
cpu0_ITLB WRITE        ACCESS:          0 HIT:          0 MISS:          0
cpu0_ITLB TRANSLATION  ACCESS:          0 HIT:          0 MISS:          0
cpu0_ITLB PREFETCH REQUESTED:          0 ISSUED:          0 USEFUL:          0 USELESS:          0
cpu0_ITLB AVERAGE MISS LATENCY: 1.381 cycles
cpu0_L1D TOTAL        ACCESS:    8784697 HIT:    6578428 MISS:    2206269
cpu0_L1D LOAD         ACCESS:    4553831 HIT:    3620771 MISS:     933060
cpu0_L1D RFO          ACCESS:          0 HIT:          0 MISS:          0
cpu0_L1D PREFETCH     ACCESS:    2338807 HIT:    1689697 MISS:     649110
cpu0_L1D WRITE        ACCESS:    1890371 HIT:    1267900 MISS:     622471
cpu0_L1D TRANSLATION  ACCESS:       1688 HIT:         60 MISS:       1628
cpu0_L1D PREFETCH REQUESTED:    4619339 ISSUED:    2338807 USEFUL:     195957 USELESS:      34995
cpu0_L1D AVERAGE MISS LATENCY: 12.5 cycles
cpu0_L1I TOTAL        ACCESS:     115366 HIT:      58022 MISS:      57344
cpu0_L1I LOAD         ACCESS:     115366 HIT:      58022 MISS:      57344
cpu0_L1I RFO          ACCESS:          0 HIT:          0 MISS:          0
cpu0_L1I PREFETCH     ACCESS:          0 HIT:          0 MISS:          0
cpu0_L1I WRITE        ACCESS:          0 HIT:          0 MISS:          0
cpu0_L1I TRANSLATION  ACCESS:          0 HIT:          0 MISS:          0
cpu0_L1I PREFETCH REQUESTED:          0 ISSUED:          0 USEFUL:          0 USELESS:          0
cpu0_L1I AVERAGE MISS LATENCY: 14.26 cycles
cpu0_L2C TOTAL        ACCESS:    1325085 HIT:     915066 MISS:     410019
cpu0_L2C LOAD         ACCESS:     298911 HIT:     198418 MISS:     100493
cpu0_L2C RFO          ACCESS:     162600 HIT:      77051 MISS:      85549
cpu0_L2C PREFETCH     ACCESS:     625565 HIT:     403121 MISS:     222444
cpu0_L2C WRITE        ACCESS:     236430 HIT:     236353 MISS:         77
cpu0_L2C TRANSLATION  ACCESS:       1579 HIT:        123 MISS:       1456
cpu0_L2C PREFETCH REQUESTED:     394634 ISSUED:     394618 USEFUL:      54662 USELESS:      12826
cpu0_L2C AVERAGE MISS LATENCY: 95.74 cycles
cpu0_STLB TOTAL        ACCESS:      21954 HIT:      20731 MISS:       1223
cpu0_STLB LOAD         ACCESS:      21954 HIT:      20731 MISS:       1223
cpu0_STLB RFO          ACCESS:          0 HIT:          0 MISS:          0
cpu0_STLB PREFETCH     ACCESS:          0 HIT:          0 MISS:          0
cpu0_STLB WRITE        ACCESS:          0 HIT:          0 MISS:          0
cpu0_STLB TRANSLATION  ACCESS:          0 HIT:          0 MISS:          0
cpu0_STLB PREFETCH REQUESTED:          0 ISSUED:          0 USEFUL:          0 USELESS:          0
cpu0_STLB AVERAGE MISS LATENCY: 593.5 cycles

DRAM Statistics

Channel 0 RQ ROW_BUFFER_HIT:      42876
  ROW_BUFFER_MISS:      33659
 AVG DBUS CONGESTED CYCLE: 3.919
WQ ROW_BUFFER_HIT: Channel 0 
  ROW_BUFFER_MISS:       2611
  FULL:      19199
