WARNING: physical memory size is smaller than virtual memory size.

*** ChampSim Multicore Out-of-Order Simulator ***
Warmup Instructions: 25000000
Simulation Instructions: 25000000
Number of CPUs: 1
Page size: 4096

Off-chip DRAM Size: 4 GiB Channels: 1 Width: 64-bit Data Race: 800 MT/s
Heartbeat CPU 0 instructions: 10000000 cycles: 2500125 heartbeat IPC: 4 cumulative IPC: 4 (Simulation time: 00 hr 00 min 28 sec)
Heartbeat CPU 0 instructions: 20000001 cycles: 5000145 heartbeat IPC: 4 cumulative IPC: 4 (Simulation time: 00 hr 00 min 59 sec)
Warmup finished CPU 0 instructions: 25000001 cycles: 6250146 cumulative IPC: 4 (Simulation time: 00 hr 01 min 16 sec)
Warmup complete CPU 0 instructions: 25000001 cycles: 6250146 cumulative IPC: 4 (Simulation time: 00 hr 01 min 16 sec)
Heartbeat CPU 0 instructions: 30000000 cycles: 13899320 heartbeat IPC: 1.124 cumulative IPC: 0.6537 (Simulation time: 00 hr 02 min 19 sec)
Heartbeat CPU 0 instructions: 40000002 cycles: 29423894 heartbeat IPC: 0.6441 cumulative IPC: 0.6473 (Simulation time: 00 hr 04 min 26 sec)
Heartbeat CPU 0 instructions: 50000000 cycles: 44891467 heartbeat IPC: 0.6465 cumulative IPC: 0.647 (Simulation time: 00 hr 06 min 33 sec)
Simulation finished CPU 0 instructions: 25000003 cycles: 38641323 cumulative IPC: 0.647 (Simulation time: 00 hr 06 min 33 sec)
Simulation complete CPU 0 instructions: 25000003 cycles: 38641323 cumulative IPC: 0.647 (Simulation time: 00 hr 06 min 33 sec)

ChampSim completed all CPUs

=== Simulation ===
CPU 0 runs ./traces/649.fotonik3d_s-7084B.champsimtrace.xz
Region of Interest Statistics

CPU 0 cumulative IPC: 0.647 instructions: 25000003 cycles: 38641323
CPU 0 Branch Prediction Accuracy: 99.19% MPKI: 0.05616 Average ROB Occupancy at Mispredict: 352
Branch type MPKI
BRANCH_DIRECT_JUMP: 0
BRANCH_INDIRECT: 0
BRANCH_CONDITIONAL: 0.0562
BRANCH_DIRECT_CALL: 0
BRANCH_INDIRECT_CALL: 0
BRANCH_RETURN: 0

LLC TOTAL        ACCESS:     551306 HIT:     130273 MISS:     421033
LLC LOAD         ACCESS:      45961 HIT:         22 MISS:      45939
LLC RFO          ACCESS:          0 HIT:          0 MISS:          0
LLC PREFETCH     ACCESS:     375057 HIT:        118 MISS:     374939
LLC WRITE        ACCESS:     129805 HIT:     129777 MISS:         28
LLC TRANSLATION  ACCESS:        483 HIT:        356 MISS:        127
LLC PREFETCH REQUESTED:          0 ISSUED:          0 USEFUL:          0 USELESS:          0
LLC AVERAGE MISS LATENCY: 921.7 cycles
cpu0_DTLB TOTAL        ACCESS:    6190138 HIT:    6165388 MISS:      24750
cpu0_DTLB LOAD         ACCESS:    6190138 HIT:    6165388 MISS:      24750
cpu0_DTLB RFO          ACCESS:          0 HIT:          0 MISS:          0
cpu0_DTLB PREFETCH     ACCESS:          0 HIT:          0 MISS:          0
cpu0_DTLB WRITE        ACCESS:          0 HIT:          0 MISS:          0
cpu0_DTLB TRANSLATION  ACCESS:          0 HIT:          0 MISS:          0
cpu0_DTLB PREFETCH REQUESTED:          0 ISSUED:          0 USEFUL:          0 USELESS:          0
cpu0_DTLB AVERAGE MISS LATENCY: 43.03 cycles
cpu0_ITLB TOTAL        ACCESS:          0 HIT:          0 MISS:          0
cpu0_ITLB LOAD         ACCESS:          0 HIT:          0 MISS:          0
cpu0_ITLB RFO          ACCESS:          0 HIT:          0 MISS:          0
cpu0_ITLB PREFETCH     ACCESS:          0 HIT:          0 MISS:          0
cpu0_ITLB WRITE        ACCESS:          0 HIT:          0 MISS:          0
cpu0_ITLB TRANSLATION  ACCESS:          0 HIT:          0 MISS:          0
cpu0_ITLB PREFETCH REQUESTED:          0 ISSUED:          0 USEFUL:          0 USELESS:          0
cpu0_ITLB AVERAGE MISS LATENCY: -nan cycles
cpu0_L1D TOTAL        ACCESS:   10767030 HIT:    8980613 MISS:    1786417
cpu0_L1D LOAD         ACCESS:    6522771 HIT:    5794187 MISS:     728584
cpu0_L1D RFO          ACCESS:          0 HIT:          0 MISS:          0
cpu0_L1D PREFETCH     ACCESS:    3009176 HIT:    1958158 MISS:    1051018
cpu0_L1D WRITE        ACCESS:    1228249 HIT:    1228246 MISS:          3
cpu0_L1D TRANSLATION  ACCESS:       6834 HIT:         22 MISS:       6812
cpu0_L1D PREFETCH REQUESTED:    6884999 ISSUED:    3009176 USEFUL:     337831 USELESS:      13674
cpu0_L1D AVERAGE MISS LATENCY: 124.1 cycles
cpu0_L1I TOTAL        ACCESS:          0 HIT:          0 MISS:          0
cpu0_L1I LOAD         ACCESS:          0 HIT:          0 MISS:          0
cpu0_L1I RFO          ACCESS:          0 HIT:          0 MISS:          0
cpu0_L1I PREFETCH     ACCESS:          0 HIT:          0 MISS:          0
cpu0_L1I WRITE        ACCESS:          0 HIT:          0 MISS:          0
cpu0_L1I TRANSLATION  ACCESS:          0 HIT:          0 MISS:          0
cpu0_L1I PREFETCH REQUESTED:          0 ISSUED:          0 USEFUL:          0 USELESS:          0
cpu0_L1I AVERAGE MISS LATENCY: -nan cycles
cpu0_L2C TOTAL        ACCESS:     685276 HIT:     245766 MISS:     439510
cpu0_L2C LOAD         ACCESS:      85792 HIT:      39146 MISS:      46646
cpu0_L2C RFO          ACCESS:          3 HIT:          3 MISS:          0
cpu0_L2C PREFETCH     ACCESS:     462111 HIT:      69792 MISS:     392319
cpu0_L2C WRITE        ACCESS:     130558 HIT:     130496 MISS:         62
cpu0_L2C TRANSLATION  ACCESS:       6812 HIT:       6329 MISS:        483
cpu0_L2C PREFETCH REQUESTED:     110606 ISSUED:     110606 USEFUL:      39775 USELESS:       3318
cpu0_L2C AVERAGE MISS LATENCY: 901.7 cycles
cpu0_STLB TOTAL        ACCESS:      13927 HIT:       7105 MISS:       6822
cpu0_STLB LOAD         ACCESS:      13927 HIT:       7105 MISS:       6822
cpu0_STLB RFO          ACCESS:          0 HIT:          0 MISS:          0
cpu0_STLB PREFETCH     ACCESS:          0 HIT:          0 MISS:          0
cpu0_STLB WRITE        ACCESS:          0 HIT:          0 MISS:          0
cpu0_STLB TRANSLATION  ACCESS:          0 HIT:          0 MISS:          0
cpu0_STLB PREFETCH REQUESTED:          0 ISSUED:          0 USEFUL:          0 USELESS:          0
cpu0_STLB AVERAGE MISS LATENCY: 204.2 cycles

DRAM Statistics

Channel 0 RQ ROW_BUFFER_HIT:     178765
  ROW_BUFFER_MISS:     242212
 AVG DBUS CONGESTED CYCLE: 3.871
WQ ROW_BUFFER_HIT: Channel 0 
  ROW_BUFFER_MISS:       8743
  FULL:     120294
