WARNING: physical memory size is smaller than virtual memory size.

*** ChampSim Multicore Out-of-Order Simulator ***
Warmup Instructions: 25000000
Simulation Instructions: 25000000
Number of CPUs: 1
Page size: 4096

Off-chip DRAM Size: 4 GiB Channels: 1 Width: 64-bit Data Race: 800 MT/s
Heartbeat CPU 0 instructions: 10000001 cycles: 2500103 heartbeat IPC: 4 cumulative IPC: 4 (Simulation time: 00 hr 00 min 28 sec)
Heartbeat CPU 0 instructions: 20000001 cycles: 5000103 heartbeat IPC: 4 cumulative IPC: 4 (Simulation time: 00 hr 00 min 56 sec)
Warmup finished CPU 0 instructions: 25000001 cycles: 6250104 cumulative IPC: 4 (Simulation time: 00 hr 01 min 11 sec)
Warmup complete CPU 0 instructions: 25000001 cycles: 6250104 cumulative IPC: 4 (Simulation time: 00 hr 01 min 11 sec)
Heartbeat CPU 0 instructions: 30000001 cycles: 11681097 heartbeat IPC: 1.497 cumulative IPC: 0.9206 (Simulation time: 00 hr 01 min 54 sec)
Heartbeat CPU 0 instructions: 40000001 cycles: 22543570 heartbeat IPC: 0.9206 cumulative IPC: 0.9206 (Simulation time: 00 hr 03 min 23 sec)
Heartbeat CPU 0 instructions: 50000003 cycles: 33404982 heartbeat IPC: 0.9207 cumulative IPC: 0.9206 (Simulation time: 00 hr 04 min 51 sec)
Simulation finished CPU 0 instructions: 25000002 cycles: 27154879 cumulative IPC: 0.9206 (Simulation time: 00 hr 04 min 51 sec)
Simulation complete CPU 0 instructions: 25000002 cycles: 27154879 cumulative IPC: 0.9206 (Simulation time: 00 hr 04 min 51 sec)

ChampSim completed all CPUs

=== Simulation ===
CPU 0 runs ./traces/649.fotonik3d_s-8225B.champsimtrace.xz
Region of Interest Statistics

CPU 0 cumulative IPC: 0.9206 instructions: 25000002 cycles: 27154879
CPU 0 Branch Prediction Accuracy: 99.98% MPKI: 0.00436 Average ROB Occupancy at Mispredict: 352
Branch type MPKI
BRANCH_DIRECT_JUMP: 0
BRANCH_INDIRECT: 0
BRANCH_CONDITIONAL: 0.00436
BRANCH_DIRECT_CALL: 0
BRANCH_INDIRECT_CALL: 0
BRANCH_RETURN: 0

LLC TOTAL        ACCESS:     552589 HIT:     333300 MISS:     219289
LLC LOAD         ACCESS:      53131 HIT:       3130 MISS:      50001
LLC RFO          ACCESS:        275 HIT:        275 MISS:          0
LLC PREFETCH     ACCESS:     279609 HIT:     110338 MISS:     169271
LLC WRITE        ACCESS:     219444 HIT:     219444 MISS:          0
LLC TRANSLATION  ACCESS:        130 HIT:        113 MISS:         17
LLC PREFETCH REQUESTED:          0 ISSUED:          0 USEFUL:          0 USELESS:          0
LLC AVERAGE MISS LATENCY: 517.9 cycles
cpu0_DTLB TOTAL        ACCESS:    5851968 HIT:    5822150 MISS:      29818
cpu0_DTLB LOAD         ACCESS:    5851968 HIT:    5822150 MISS:      29818
cpu0_DTLB RFO          ACCESS:          0 HIT:          0 MISS:          0
cpu0_DTLB PREFETCH     ACCESS:          0 HIT:          0 MISS:          0
cpu0_DTLB WRITE        ACCESS:          0 HIT:          0 MISS:          0
cpu0_DTLB TRANSLATION  ACCESS:          0 HIT:          0 MISS:          0
cpu0_DTLB PREFETCH REQUESTED:          0 ISSUED:          0 USEFUL:          0 USELESS:          0
cpu0_DTLB AVERAGE MISS LATENCY: 13.83 cycles
cpu0_ITLB TOTAL        ACCESS:          0 HIT:          0 MISS:          0
cpu0_ITLB LOAD         ACCESS:          0 HIT:          0 MISS:          0
cpu0_ITLB RFO          ACCESS:          0 HIT:          0 MISS:          0
cpu0_ITLB PREFETCH     ACCESS:          0 HIT:          0 MISS:          0
cpu0_ITLB WRITE        ACCESS:          0 HIT:          0 MISS:          0
cpu0_ITLB TRANSLATION  ACCESS:          0 HIT:          0 MISS:          0
cpu0_ITLB PREFETCH REQUESTED:          0 ISSUED:          0 USEFUL:          0 USELESS:          0
cpu0_ITLB AVERAGE MISS LATENCY: -nan cycles
cpu0_L1D TOTAL        ACCESS:   12099297 HIT:   10229433 MISS:    1869864
cpu0_L1D LOAD         ACCESS:    6250198 HIT:    5148995 MISS:    1101203
cpu0_L1D RFO          ACCESS:          0 HIT:          0 MISS:          0
cpu0_L1D PREFETCH     ACCESS:    4090518 HIT:    3323357 MISS:     767161
cpu0_L1D WRITE        ACCESS:    1755140 HIT:    1753772 MISS:       1368
cpu0_L1D TRANSLATION  ACCESS:       3441 HIT:       3309 MISS:        132
cpu0_L1D PREFETCH REQUESTED:    6250263 ISSUED:    4090514 USEFUL:     275105 USELESS:       2950
cpu0_L1D AVERAGE MISS LATENCY: 39.46 cycles
cpu0_L1I TOTAL        ACCESS:          0 HIT:          0 MISS:          0
cpu0_L1I LOAD         ACCESS:          0 HIT:          0 MISS:          0
cpu0_L1I RFO          ACCESS:          0 HIT:          0 MISS:          0
cpu0_L1I PREFETCH     ACCESS:          0 HIT:          0 MISS:          0
cpu0_L1I WRITE        ACCESS:          0 HIT:          0 MISS:          0
cpu0_L1I TRANSLATION  ACCESS:          0 HIT:          0 MISS:          0
cpu0_L1I PREFETCH REQUESTED:          0 ISSUED:          0 USEFUL:          0 USELESS:          0
cpu0_L1I AVERAGE MISS LATENCY: -nan cycles
cpu0_L2C TOTAL        ACCESS:     566772 HIT:     222870 MISS:     343902
cpu0_L2C LOAD         ACCESS:      55413 HIT:        540 MISS:      54873
cpu0_L2C RFO          ACCESS:        275 HIT:          0 MISS:        275
cpu0_L2C PREFETCH     ACCESS:     291279 HIT:       2655 MISS:     288624
cpu0_L2C WRITE        ACCESS:     219674 HIT:     219674 MISS:          0
cpu0_L2C TRANSLATION  ACCESS:        131 HIT:          1 MISS:        130
cpu0_L2C PREFETCH REQUESTED:      13228 ISSUED:      13228 USEFUL:       9475 USELESS:         46
cpu0_L2C AVERAGE MISS LATENCY: 350.1 cycles
cpu0_STLB TOTAL        ACCESS:       5886 HIT:       2456 MISS:       3430
cpu0_STLB LOAD         ACCESS:       5886 HIT:       2456 MISS:       3430
cpu0_STLB RFO          ACCESS:          0 HIT:          0 MISS:          0
cpu0_STLB PREFETCH     ACCESS:          0 HIT:          0 MISS:          0
cpu0_STLB WRITE        ACCESS:          0 HIT:          0 MISS:          0
cpu0_STLB TRANSLATION  ACCESS:          0 HIT:          0 MISS:          0
cpu0_STLB PREFETCH REQUESTED:          0 ISSUED:          0 USEFUL:          0 USELESS:          0
cpu0_STLB AVERAGE MISS LATENCY: 212.1 cycles

DRAM Statistics

Channel 0 RQ ROW_BUFFER_HIT:      41267
  ROW_BUFFER_MISS:     178018
 AVG DBUS CONGESTED CYCLE: 3.941
WQ ROW_BUFFER_HIT: Channel 0 
  ROW_BUFFER_MISS:      42126
  FULL:     176957
