WARNING: physical memory size is smaller than virtual memory size.

*** ChampSim Multicore Out-of-Order Simulator ***
Warmup Instructions: 25000000
Simulation Instructions: 25000000
Number of CPUs: 1
Page size: 4096

Off-chip DRAM Size: 4 GiB Channels: 1 Width: 64-bit Data Race: 800 MT/s
Heartbeat CPU 0 instructions: 10000002 cycles: 2500102 heartbeat IPC: 4 cumulative IPC: 4 (Simulation time: 00 hr 00 min 28 sec)
Heartbeat CPU 0 instructions: 20000002 cycles: 5000102 heartbeat IPC: 4 cumulative IPC: 4 (Simulation time: 00 hr 00 min 57 sec)
Warmup finished CPU 0 instructions: 25000002 cycles: 6250103 cumulative IPC: 4 (Simulation time: 00 hr 01 min 12 sec)
Warmup complete CPU 0 instructions: 25000002 cycles: 6250103 cumulative IPC: 4 (Simulation time: 00 hr 01 min 12 sec)
Heartbeat CPU 0 instructions: 30000003 cycles: 11649802 heartbeat IPC: 1.504 cumulative IPC: 0.926 (Simulation time: 00 hr 01 min 56 sec)
Heartbeat CPU 0 instructions: 40000001 cycles: 22450475 heartbeat IPC: 0.9259 cumulative IPC: 0.9259 (Simulation time: 00 hr 03 min 24 sec)
Heartbeat CPU 0 instructions: 50000001 cycles: 33262575 heartbeat IPC: 0.9249 cumulative IPC: 0.9255 (Simulation time: 00 hr 04 min 51 sec)
Simulation finished CPU 0 instructions: 25000003 cycles: 27012474 cumulative IPC: 0.9255 (Simulation time: 00 hr 04 min 51 sec)
Simulation complete CPU 0 instructions: 25000003 cycles: 27012474 cumulative IPC: 0.9255 (Simulation time: 00 hr 04 min 51 sec)

ChampSim completed all CPUs

=== Simulation ===
CPU 0 runs ./traces/649.fotonik3d_s-1176B.champsimtrace.xz
Region of Interest Statistics

CPU 0 cumulative IPC: 0.9255 instructions: 25000003 cycles: 27012474
CPU 0 Branch Prediction Accuracy: 99.97% MPKI: 0.0044 Average ROB Occupancy at Mispredict: 352
Branch type MPKI
BRANCH_DIRECT_JUMP: 0
BRANCH_INDIRECT: 0
BRANCH_CONDITIONAL: 0.0044
BRANCH_DIRECT_CALL: 0
BRANCH_INDIRECT_CALL: 0
BRANCH_RETURN: 0

LLC TOTAL        ACCESS:     552678 HIT:     333359 MISS:     219319
LLC LOAD         ACCESS:      53287 HIT:       3168 MISS:      50119
LLC RFO          ACCESS:        330 HIT:        330 MISS:          0
LLC PREFETCH     ACCESS:     279464 HIT:     110301 MISS:     169163
LLC WRITE        ACCESS:     219451 HIT:     219450 MISS:          1
LLC TRANSLATION  ACCESS:        146 HIT:        110 MISS:         36
LLC PREFETCH REQUESTED:          0 ISSUED:          0 USEFUL:          0 USELESS:          0
LLC AVERAGE MISS LATENCY: 514.5 cycles
cpu0_DTLB TOTAL        ACCESS:    5851673 HIT:    5821763 MISS:      29910
cpu0_DTLB LOAD         ACCESS:    5851673 HIT:    5821763 MISS:      29910
cpu0_DTLB RFO          ACCESS:          0 HIT:          0 MISS:          0
cpu0_DTLB PREFETCH     ACCESS:          0 HIT:          0 MISS:          0
cpu0_DTLB WRITE        ACCESS:          0 HIT:          0 MISS:          0
cpu0_DTLB TRANSLATION  ACCESS:          0 HIT:          0 MISS:          0
cpu0_DTLB PREFETCH REQUESTED:          0 ISSUED:          0 USEFUL:          0 USELESS:          0
cpu0_DTLB AVERAGE MISS LATENCY: 14.36 cycles
cpu0_ITLB TOTAL        ACCESS:          0 HIT:          0 MISS:          0
cpu0_ITLB LOAD         ACCESS:          0 HIT:          0 MISS:          0
cpu0_ITLB RFO          ACCESS:          0 HIT:          0 MISS:          0
cpu0_ITLB PREFETCH     ACCESS:          0 HIT:          0 MISS:          0
cpu0_ITLB WRITE        ACCESS:          0 HIT:          0 MISS:          0
cpu0_ITLB TRANSLATION  ACCESS:          0 HIT:          0 MISS:          0
cpu0_ITLB PREFETCH REQUESTED:          0 ISSUED:          0 USEFUL:          0 USELESS:          0
cpu0_ITLB AVERAGE MISS LATENCY: -nan cycles
cpu0_L1D TOTAL        ACCESS:   12097155 HIT:   10228056 MISS:    1869099
cpu0_L1D LOAD         ACCESS:    6249971 HIT:    5148766 MISS:    1101205
cpu0_L1D RFO          ACCESS:          0 HIT:          0 MISS:          0
cpu0_L1D PREFETCH     ACCESS:    4088589 HIT:    3322262 MISS:     766327
cpu0_L1D WRITE        ACCESS:    1755140 HIT:    1753722 MISS:       1418
cpu0_L1D TRANSLATION  ACCESS:       3455 HIT:       3306 MISS:        149
cpu0_L1D PREFETCH REQUESTED:    6250067 ISSUED:    4088589 USEFUL:     274962 USELESS:       2943
cpu0_L1D AVERAGE MISS LATENCY: 39.26 cycles
cpu0_L1I TOTAL        ACCESS:          0 HIT:          0 MISS:          0
cpu0_L1I LOAD         ACCESS:          0 HIT:          0 MISS:          0
cpu0_L1I RFO          ACCESS:          0 HIT:          0 MISS:          0
cpu0_L1I PREFETCH     ACCESS:          0 HIT:          0 MISS:          0
cpu0_L1I WRITE        ACCESS:          0 HIT:          0 MISS:          0
cpu0_L1I TRANSLATION  ACCESS:          0 HIT:          0 MISS:          0
cpu0_L1I PREFETCH REQUESTED:          0 ISSUED:          0 USEFUL:          0 USELESS:          0
cpu0_L1I AVERAGE MISS LATENCY: -nan cycles
cpu0_L2C TOTAL        ACCESS:     566818 HIT:     222708 MISS:     344110
cpu0_L2C LOAD         ACCESS:      55504 HIT:        436 MISS:      55068
cpu0_L2C RFO          ACCESS:        330 HIT:          0 MISS:        330
cpu0_L2C PREFETCH     ACCESS:     291184 HIT:       2618 MISS:     288566
cpu0_L2C WRITE        ACCESS:     219654 HIT:     219654 MISS:          0
cpu0_L2C TRANSLATION  ACCESS:        146 HIT:          0 MISS:        146
cpu0_L2C PREFETCH REQUESTED:      13262 ISSUED:      13262 USEFUL:       9448 USELESS:         46
cpu0_L2C AVERAGE MISS LATENCY: 347.8 cycles
cpu0_STLB TOTAL        ACCESS:       5799 HIT:       2363 MISS:       3436
cpu0_STLB LOAD         ACCESS:       5799 HIT:       2363 MISS:       3436
cpu0_STLB RFO          ACCESS:          0 HIT:          0 MISS:          0
cpu0_STLB PREFETCH     ACCESS:          0 HIT:          0 MISS:          0
cpu0_STLB WRITE        ACCESS:          0 HIT:          0 MISS:          0
cpu0_STLB TRANSLATION  ACCESS:          0 HIT:          0 MISS:          0
cpu0_STLB PREFETCH REQUESTED:          0 ISSUED:          0 USEFUL:          0 USELESS:          0
cpu0_STLB AVERAGE MISS LATENCY: 218 cycles

DRAM Statistics

Channel 0 RQ ROW_BUFFER_HIT:      41416
  ROW_BUFFER_MISS:     177900
 AVG DBUS CONGESTED CYCLE: 3.937
WQ ROW_BUFFER_HIT: Channel 0 
  ROW_BUFFER_MISS:      49458
  FULL:     169637
