WARNING: physical memory size is smaller than virtual memory size.

*** ChampSim Multicore Out-of-Order Simulator ***
Warmup Instructions: 25000000
Simulation Instructions: 25000000
Number of CPUs: 1
Page size: 4096

Off-chip DRAM Size: 4 GiB Channels: 1 Width: 64-bit Data Race: 800 MT/s
Heartbeat CPU 0 instructions: 10000003 cycles: 3155470 heartbeat IPC: 3.169 cumulative IPC: 3.169 (Simulation time: 00 hr 00 min 43 sec)
Heartbeat CPU 0 instructions: 20000003 cycles: 6311421 heartbeat IPC: 3.169 cumulative IPC: 3.169 (Simulation time: 00 hr 01 min 26 sec)
Warmup finished CPU 0 instructions: 25000002 cycles: 7888729 cumulative IPC: 3.169 (Simulation time: 00 hr 01 min 48 sec)
Warmup complete CPU 0 instructions: 25000002 cycles: 7888729 cumulative IPC: 3.169 (Simulation time: 00 hr 01 min 48 sec)
Heartbeat CPU 0 instructions: 30000002 cycles: 18880357 heartbeat IPC: 0.7956 cumulative IPC: 0.4549 (Simulation time: 00 hr 03 min 18 sec)
Heartbeat CPU 0 instructions: 40000000 cycles: 41180871 heartbeat IPC: 0.4484 cumulative IPC: 0.4506 (Simulation time: 00 hr 06 min 11 sec)
Heartbeat CPU 0 instructions: 50000000 cycles: 63514636 heartbeat IPC: 0.4478 cumulative IPC: 0.4494 (Simulation time: 00 hr 08 min 57 sec)
Simulation finished CPU 0 instructions: 25000002 cycles: 55625909 cumulative IPC: 0.4494 (Simulation time: 00 hr 08 min 57 sec)
Simulation complete CPU 0 instructions: 25000002 cycles: 55625909 cumulative IPC: 0.4494 (Simulation time: 00 hr 08 min 57 sec)

ChampSim completed all CPUs

=== Simulation ===
CPU 0 runs ./traces/649.fotonik3d_s-10881B.champsimtrace.xz
Region of Interest Statistics

CPU 0 cumulative IPC: 0.4494 instructions: 25000002 cycles: 55625909
CPU 0 Branch Prediction Accuracy: 93.33% MPKI: 0.8021 Average ROB Occupancy at Mispredict: 352
Branch type MPKI
BRANCH_DIRECT_JUMP: 0
BRANCH_INDIRECT: 0
BRANCH_CONDITIONAL: 0.802
BRANCH_DIRECT_CALL: 0
BRANCH_INDIRECT_CALL: 0
BRANCH_RETURN: 0

LLC TOTAL        ACCESS:     829296 HIT:     328901 MISS:     500395
LLC LOAD         ACCESS:     277893 HIT:      41554 MISS:     236339
LLC RFO          ACCESS:          0 HIT:          0 MISS:          0
LLC PREFETCH     ACCESS:     297369 HIT:      37744 MISS:     259625
LLC WRITE        ACCESS:     242754 HIT:     242754 MISS:          0
LLC TRANSLATION  ACCESS:      11280 HIT:       6849 MISS:       4431
LLC PREFETCH REQUESTED:          0 ISSUED:          0 USEFUL:          0 USELESS:          0
LLC AVERAGE MISS LATENCY: 921.5 cycles
cpu0_DTLB TOTAL        ACCESS:    9221880 HIT:    8958541 MISS:     263339
cpu0_DTLB LOAD         ACCESS:    9221880 HIT:    8958541 MISS:     263339
cpu0_DTLB RFO          ACCESS:          0 HIT:          0 MISS:          0
cpu0_DTLB PREFETCH     ACCESS:          0 HIT:          0 MISS:          0
cpu0_DTLB WRITE        ACCESS:          0 HIT:          0 MISS:          0
cpu0_DTLB TRANSLATION  ACCESS:          0 HIT:          0 MISS:          0
cpu0_DTLB PREFETCH REQUESTED:          0 ISSUED:          0 USEFUL:          0 USELESS:          0
cpu0_DTLB AVERAGE MISS LATENCY: 54.57 cycles
cpu0_ITLB TOTAL        ACCESS:          0 HIT:          0 MISS:          0
cpu0_ITLB LOAD         ACCESS:          0 HIT:          0 MISS:          0
cpu0_ITLB RFO          ACCESS:          0 HIT:          0 MISS:          0
cpu0_ITLB PREFETCH     ACCESS:          0 HIT:          0 MISS:          0
cpu0_ITLB WRITE        ACCESS:          0 HIT:          0 MISS:          0
cpu0_ITLB TRANSLATION  ACCESS:          0 HIT:          0 MISS:          0
cpu0_ITLB PREFETCH REQUESTED:          0 ISSUED:          0 USEFUL:          0 USELESS:          0
cpu0_ITLB AVERAGE MISS LATENCY: -nan cycles
cpu0_L1D TOTAL        ACCESS:   12243327 HIT:   10841040 MISS:    1402287
cpu0_L1D LOAD         ACCESS:    8961593 HIT:    8122749 MISS:     838844
cpu0_L1D RFO          ACCESS:          0 HIT:          0 MISS:          0
cpu0_L1D PREFETCH     ACCESS:    1593882 HIT:    1114583 MISS:     479299
cpu0_L1D WRITE        ACCESS:    1602830 HIT:    1602829 MISS:          1
cpu0_L1D TRANSLATION  ACCESS:      85022 HIT:        879 MISS:      84143
cpu0_L1D PREFETCH REQUESTED:    9693727 ISSUED:    1593878 USEFUL:     181121 USELESS:      78752
cpu0_L1D AVERAGE MISS LATENCY: 253.7 cycles
cpu0_L1I TOTAL        ACCESS:          0 HIT:          0 MISS:          0
cpu0_L1I LOAD         ACCESS:          0 HIT:          0 MISS:          0
cpu0_L1I RFO          ACCESS:          0 HIT:          0 MISS:          0
cpu0_L1I PREFETCH     ACCESS:          0 HIT:          0 MISS:          0
cpu0_L1I WRITE        ACCESS:          0 HIT:          0 MISS:          0
cpu0_L1I TRANSLATION  ACCESS:          0 HIT:          0 MISS:          0
cpu0_L1I PREFETCH REQUESTED:          0 ISSUED:          0 USEFUL:          0 USELESS:          0
cpu0_L1I AVERAGE MISS LATENCY: -nan cycles
cpu0_L2C TOTAL        ACCESS:     964329 HIT:     373864 MISS:     590465
cpu0_L2C LOAD         ACCESS:     299918 HIT:      21910 MISS:     278008
cpu0_L2C RFO          ACCESS:          1 HIT:          1 MISS:          0
cpu0_L2C PREFETCH     ACCESS:     337380 HIT:      36203 MISS:     301177
cpu0_L2C WRITE        ACCESS:     242887 HIT:     242887 MISS:          0
cpu0_L2C TRANSLATION  ACCESS:      84143 HIT:      72863 MISS:      11280
cpu0_L2C PREFETCH REQUESTED:      77469 ISSUED:      77469 USEFUL:      37320 USELESS:      17215
cpu0_L2C AVERAGE MISS LATENCY: 799.7 cycles
cpu0_STLB TOTAL        ACCESS:     114879 HIT:      29989 MISS:      84890
cpu0_STLB LOAD         ACCESS:     114879 HIT:      29989 MISS:      84890
cpu0_STLB RFO          ACCESS:          0 HIT:          0 MISS:          0
cpu0_STLB PREFETCH     ACCESS:          0 HIT:          0 MISS:          0
cpu0_STLB WRITE        ACCESS:          0 HIT:          0 MISS:          0
cpu0_STLB TRANSLATION  ACCESS:          0 HIT:          0 MISS:          0
cpu0_STLB PREFETCH REQUESTED:          0 ISSUED:          0 USEFUL:          0 USELESS:          0
cpu0_STLB AVERAGE MISS LATENCY: 251 cycles

DRAM Statistics

Channel 0 RQ ROW_BUFFER_HIT:     174867
  ROW_BUFFER_MISS:     325483
 AVG DBUS CONGESTED CYCLE: 3.914
WQ ROW_BUFFER_HIT: Channel 0 
  ROW_BUFFER_MISS:       2142
  FULL:     239672
