WARNING: physical memory size is smaller than virtual memory size.

*** ChampSim Multicore Out-of-Order Simulator ***
Warmup Instructions: 25000000
Simulation Instructions: 25000000
Number of CPUs: 1
Page size: 4096

Off-chip DRAM Size: 4 GiB Channels: 1 Width: 64-bit Data Race: 800 MT/s
Heartbeat CPU 0 instructions: 10000002 cycles: 2500084 heartbeat IPC: 4 cumulative IPC: 4 (Simulation time: 00 hr 00 min 26 sec)
Heartbeat CPU 0 instructions: 20000002 cycles: 5000084 heartbeat IPC: 4 cumulative IPC: 4 (Simulation time: 00 hr 00 min 53 sec)
Warmup finished CPU 0 instructions: 25000002 cycles: 6250085 cumulative IPC: 4 (Simulation time: 00 hr 01 min 06 sec)
Warmup complete CPU 0 instructions: 25000002 cycles: 6250085 cumulative IPC: 4 (Simulation time: 00 hr 01 min 06 sec)
Heartbeat CPU 0 instructions: 30000002 cycles: 7873027 heartbeat IPC: 3.481 cumulative IPC: 3.081 (Simulation time: 00 hr 01 min 22 sec)
Heartbeat CPU 0 instructions: 40000002 cycles: 11142631 heartbeat IPC: 3.058 cumulative IPC: 3.066 (Simulation time: 00 hr 01 min 53 sec)
Heartbeat CPU 0 instructions: 50000003 cycles: 28453708 heartbeat IPC: 0.5777 cumulative IPC: 1.126 (Simulation time: 00 hr 03 min 45 sec)
Simulation finished CPU 0 instructions: 25000001 cycles: 22203624 cumulative IPC: 1.126 (Simulation time: 00 hr 03 min 45 sec)
Simulation complete CPU 0 instructions: 25000001 cycles: 22203624 cumulative IPC: 1.126 (Simulation time: 00 hr 03 min 45 sec)

ChampSim completed all CPUs

=== Simulation ===
CPU 0 runs ./traces/654.roms_s-1613B.champsimtrace.xz
Region of Interest Statistics

CPU 0 cumulative IPC: 1.126 instructions: 25000001 cycles: 22203624
CPU 0 Branch Prediction Accuracy: 87.17% MPKI: 13.24 Average ROB Occupancy at Mispredict: 73.41
Branch type MPKI
BRANCH_DIRECT_JUMP: 0.00032
BRANCH_INDIRECT: 0
BRANCH_CONDITIONAL: 6.64
BRANCH_DIRECT_CALL: 0.00032
BRANCH_INDIRECT_CALL: 0
BRANCH_RETURN: 6.6

LLC TOTAL        ACCESS:     354614 HIT:      79022 MISS:     275592
LLC LOAD         ACCESS:      55767 HIT:       1093 MISS:      54674
LLC RFO          ACCESS:      76911 HIT:          0 MISS:      76911
LLC PREFETCH     ACCESS:     144004 HIT:        881 MISS:     143123
LLC WRITE        ACCESS:      77039 HIT:      76855 MISS:        184
LLC TRANSLATION  ACCESS:        893 HIT:        193 MISS:        700
LLC PREFETCH REQUESTED:          0 ISSUED:          0 USEFUL:          0 USELESS:          0
LLC AVERAGE MISS LATENCY: 803.8 cycles
cpu0_DTLB TOTAL        ACCESS:    4864322 HIT:    4830015 MISS:      34307
cpu0_DTLB LOAD         ACCESS:    4864322 HIT:    4830015 MISS:      34307
cpu0_DTLB RFO          ACCESS:          0 HIT:          0 MISS:          0
cpu0_DTLB PREFETCH     ACCESS:          0 HIT:          0 MISS:          0
cpu0_DTLB WRITE        ACCESS:          0 HIT:          0 MISS:          0
cpu0_DTLB TRANSLATION  ACCESS:          0 HIT:          0 MISS:          0
cpu0_DTLB PREFETCH REQUESTED:          0 ISSUED:          0 USEFUL:          0 USELESS:          0
cpu0_DTLB AVERAGE MISS LATENCY: 30.43 cycles
cpu0_ITLB TOTAL        ACCESS:        127 HIT:        117 MISS:         10
cpu0_ITLB LOAD         ACCESS:        127 HIT:        117 MISS:         10
cpu0_ITLB RFO          ACCESS:          0 HIT:          0 MISS:          0
cpu0_ITLB PREFETCH     ACCESS:          0 HIT:          0 MISS:          0
cpu0_ITLB WRITE        ACCESS:          0 HIT:          0 MISS:          0
cpu0_ITLB TRANSLATION  ACCESS:          0 HIT:          0 MISS:          0
cpu0_ITLB PREFETCH REQUESTED:          0 ISSUED:          0 USEFUL:          0 USELESS:          0
cpu0_ITLB AVERAGE MISS LATENCY: 509.2 cycles
cpu0_L1D TOTAL        ACCESS:   10263374 HIT:    8918697 MISS:    1344677
cpu0_L1D LOAD         ACCESS:    3934132 HIT:    3469130 MISS:     465002
cpu0_L1D RFO          ACCESS:          0 HIT:          0 MISS:          0
cpu0_L1D PREFETCH     ACCESS:    3569886 HIT:    3243774 MISS:     326112
cpu0_L1D WRITE        ACCESS:    2755418 HIT:    2204166 MISS:     551252
cpu0_L1D TRANSLATION  ACCESS:       3938 HIT:       1627 MISS:       2311
cpu0_L1D PREFETCH REQUESTED:    7328668 ISSUED:    3569895 USEFUL:      48226 USELESS:       2286
cpu0_L1D AVERAGE MISS LATENCY: 136.8 cycles
cpu0_L1I TOTAL        ACCESS:        149 HIT:         55 MISS:         94
cpu0_L1I LOAD         ACCESS:        149 HIT:         55 MISS:         94
cpu0_L1I RFO          ACCESS:          0 HIT:          0 MISS:          0
cpu0_L1I PREFETCH     ACCESS:          0 HIT:          0 MISS:          0
cpu0_L1I WRITE        ACCESS:          0 HIT:          0 MISS:          0
cpu0_L1I TRANSLATION  ACCESS:          0 HIT:          0 MISS:          0
cpu0_L1I PREFETCH REQUESTED:          0 ISSUED:          0 USEFUL:          0 USELESS:          0
cpu0_L1I AVERAGE MISS LATENCY: 321 cycles
cpu0_L2C TOTAL        ACCESS:     419725 HIT:     109591 MISS:     310134
cpu0_L2C LOAD         ACCESS:      68292 HIT:       1695 MISS:      66597
cpu0_L2C RFO          ACCESS:      76986 HIT:         75 MISS:      76911
cpu0_L2C PREFETCH     ACCESS:     194463 HIT:      28947 MISS:     165516
cpu0_L2C WRITE        ACCESS:      77676 HIT:      77459 MISS:        217
cpu0_L2C TRANSLATION  ACCESS:       2308 HIT:       1415 MISS:        893
cpu0_L2C PREFETCH REQUESTED:     143952 ISSUED:     143952 USEFUL:      22389 USELESS:       4946
cpu0_L2C AVERAGE MISS LATENCY: 685.1 cycles
cpu0_STLB TOTAL        ACCESS:       4216 HIT:        297 MISS:       3919
cpu0_STLB LOAD         ACCESS:       4216 HIT:        297 MISS:       3919
cpu0_STLB RFO          ACCESS:          0 HIT:          0 MISS:          0
cpu0_STLB PREFETCH     ACCESS:          0 HIT:          0 MISS:          0
cpu0_STLB WRITE        ACCESS:          0 HIT:          0 MISS:          0
cpu0_STLB TRANSLATION  ACCESS:          0 HIT:          0 MISS:          0
cpu0_STLB PREFETCH REQUESTED:          0 ISSUED:          0 USEFUL:          0 USELESS:          0
cpu0_STLB AVERAGE MISS LATENCY: 493 cycles

DRAM Statistics

Channel 0 RQ ROW_BUFFER_HIT:      75345
  ROW_BUFFER_MISS:     120932
 AVG DBUS CONGESTED CYCLE: 3.921
WQ ROW_BUFFER_HIT: Channel 0 
  ROW_BUFFER_MISS:       6444
  FULL:      70677
