WARNING: physical memory size is smaller than virtual memory size.

*** ChampSim Multicore Out-of-Order Simulator ***
Warmup Instructions: 25000000
Simulation Instructions: 25000000
Number of CPUs: 1
Page size: 4096

Off-chip DRAM Size: 4 GiB Channels: 1 Width: 64-bit Data Race: 800 MT/s
Heartbeat CPU 0 instructions: 10000003 cycles: 2500448 heartbeat IPC: 3.999 cumulative IPC: 3.999 (Simulation time: 00 hr 00 min 28 sec)
Heartbeat CPU 0 instructions: 20000002 cycles: 5001150 heartbeat IPC: 3.999 cumulative IPC: 3.999 (Simulation time: 00 hr 00 min 59 sec)
Warmup finished CPU 0 instructions: 25000002 cycles: 6251151 cumulative IPC: 3.999 (Simulation time: 00 hr 01 min 16 sec)
Warmup complete CPU 0 instructions: 25000002 cycles: 6251151 cumulative IPC: 3.999 (Simulation time: 00 hr 01 min 16 sec)
Heartbeat CPU 0 instructions: 30000000 cycles: 9890817 heartbeat IPC: 2.045 cumulative IPC: 1.374 (Simulation time: 00 hr 01 min 51 sec)
Heartbeat CPU 0 instructions: 40000002 cycles: 19620451 heartbeat IPC: 1.028 cumulative IPC: 1.122 (Simulation time: 00 hr 03 min 20 sec)
Heartbeat CPU 0 instructions: 50000002 cycles: 27143833 heartbeat IPC: 1.329 cumulative IPC: 1.197 (Simulation time: 00 hr 04 min 30 sec)
Simulation finished CPU 0 instructions: 25000000 cycles: 20892683 cumulative IPC: 1.197 (Simulation time: 00 hr 04 min 30 sec)
Simulation complete CPU 0 instructions: 25000000 cycles: 20892683 cumulative IPC: 1.197 (Simulation time: 00 hr 04 min 30 sec)

ChampSim completed all CPUs

=== Simulation ===
CPU 0 runs ./traces/654.roms_s-293B.champsimtrace.xz
Region of Interest Statistics

CPU 0 cumulative IPC: 1.197 instructions: 25000000 cycles: 20892683
CPU 0 Branch Prediction Accuracy: 99.8% MPKI: 0.02352 Average ROB Occupancy at Mispredict: 347.5
Branch type MPKI
BRANCH_DIRECT_JUMP: 0
BRANCH_INDIRECT: 0
BRANCH_CONDITIONAL: 0.0235
BRANCH_DIRECT_CALL: 0
BRANCH_INDIRECT_CALL: 0
BRANCH_RETURN: 0

LLC TOTAL        ACCESS:     391367 HIT:     220247 MISS:     171120
LLC LOAD         ACCESS:      28032 HIT:      15282 MISS:      12750
LLC RFO          ACCESS:     128289 HIT:      29370 MISS:      98919
LLC PREFETCH     ACCESS:     105772 HIT:      49699 MISS:      56073
LLC WRITE        ACCESS:     125791 HIT:     125780 MISS:         11
LLC TRANSLATION  ACCESS:       3483 HIT:        116 MISS:       3367
LLC PREFETCH REQUESTED:          0 ISSUED:          0 USEFUL:          0 USELESS:          0
LLC AVERAGE MISS LATENCY: 1112 cycles
cpu0_DTLB TOTAL        ACCESS:    5819708 HIT:    5797046 MISS:      22662
cpu0_DTLB LOAD         ACCESS:    5819708 HIT:    5797046 MISS:      22662
cpu0_DTLB RFO          ACCESS:          0 HIT:          0 MISS:          0
cpu0_DTLB PREFETCH     ACCESS:          0 HIT:          0 MISS:          0
cpu0_DTLB WRITE        ACCESS:          0 HIT:          0 MISS:          0
cpu0_DTLB TRANSLATION  ACCESS:          0 HIT:          0 MISS:          0
cpu0_DTLB PREFETCH REQUESTED:          0 ISSUED:          0 USEFUL:          0 USELESS:          0
cpu0_DTLB AVERAGE MISS LATENCY: 132.4 cycles
cpu0_ITLB TOTAL        ACCESS:        290 HIT:        290 MISS:          0
cpu0_ITLB LOAD         ACCESS:        290 HIT:        290 MISS:          0
cpu0_ITLB RFO          ACCESS:          0 HIT:          0 MISS:          0
cpu0_ITLB PREFETCH     ACCESS:          0 HIT:          0 MISS:          0
cpu0_ITLB WRITE        ACCESS:          0 HIT:          0 MISS:          0
cpu0_ITLB TRANSLATION  ACCESS:          0 HIT:          0 MISS:          0
cpu0_ITLB PREFETCH REQUESTED:          0 ISSUED:          0 USEFUL:          0 USELESS:          0
cpu0_ITLB AVERAGE MISS LATENCY: -nan cycles
cpu0_L1D TOTAL        ACCESS:    9602230 HIT:    8314406 MISS:    1287824
cpu0_L1D LOAD         ACCESS:    4549862 HIT:    4258170 MISS:     291692
cpu0_L1D RFO          ACCESS:          0 HIT:          0 MISS:          0
cpu0_L1D PREFETCH     ACCESS:    2696898 HIT:    2428960 MISS:     267938
cpu0_L1D WRITE        ACCESS:    2351852 HIT:    1627252 MISS:     724600
cpu0_L1D TRANSLATION  ACCESS:       3618 HIT:         24 MISS:       3594
cpu0_L1D PREFETCH REQUESTED:    5030233 ISSUED:    2696897 USEFUL:      84222 USELESS:       2684
cpu0_L1D AVERAGE MISS LATENCY: 88.77 cycles
cpu0_L1I TOTAL        ACCESS:        392 HIT:        392 MISS:          0
cpu0_L1I LOAD         ACCESS:        392 HIT:        392 MISS:          0
cpu0_L1I RFO          ACCESS:          0 HIT:          0 MISS:          0
cpu0_L1I PREFETCH     ACCESS:          0 HIT:          0 MISS:          0
cpu0_L1I WRITE        ACCESS:          0 HIT:          0 MISS:          0
cpu0_L1I TRANSLATION  ACCESS:          0 HIT:          0 MISS:          0
cpu0_L1I PREFETCH REQUESTED:          0 ISSUED:          0 USEFUL:          0 USELESS:          0
cpu0_L1I AVERAGE MISS LATENCY: -nan cycles
cpu0_L2C TOTAL        ACCESS:     532850 HIT:     251155 MISS:     281695
cpu0_L2C LOAD         ACCESS:      77785 HIT:      45277 MISS:      32508
cpu0_L2C RFO          ACCESS:     128546 HIT:        256 MISS:     128290
cpu0_L2C PREFETCH     ACCESS:     194257 HIT:      77218 MISS:     117039
cpu0_L2C WRITE        ACCESS:     128689 HIT:     128314 MISS:        375
cpu0_L2C TRANSLATION  ACCESS:       3573 HIT:         90 MISS:       3483
cpu0_L2C PREFETCH REQUESTED:     107347 ISSUED:     107347 USEFUL:      34596 USELESS:       2540
cpu0_L2C AVERAGE MISS LATENCY: 690.2 cycles
cpu0_STLB TOTAL        ACCESS:       6363 HIT:       3991 MISS:       2372
cpu0_STLB LOAD         ACCESS:       6363 HIT:       3991 MISS:       2372
cpu0_STLB RFO          ACCESS:          0 HIT:          0 MISS:          0
cpu0_STLB PREFETCH     ACCESS:          0 HIT:          0 MISS:          0
cpu0_STLB WRITE        ACCESS:          0 HIT:          0 MISS:          0
cpu0_STLB TRANSLATION  ACCESS:          0 HIT:          0 MISS:          0
cpu0_STLB PREFETCH REQUESTED:          0 ISSUED:          0 USEFUL:          0 USELESS:          0
cpu0_STLB AVERAGE MISS LATENCY: 1777 cycles

DRAM Statistics

Channel 0 RQ ROW_BUFFER_HIT:      40788
  ROW_BUFFER_MISS:     129553
 AVG DBUS CONGESTED CYCLE: 3.949
WQ ROW_BUFFER_HIT: Channel 0 
  ROW_BUFFER_MISS:       3307
  FULL:      98877
