WARNING: physical memory size is smaller than virtual memory size.

*** ChampSim Multicore Out-of-Order Simulator ***
Warmup Instructions: 25000000
Simulation Instructions: 25000000
Number of CPUs: 1
Page size: 4096

Off-chip DRAM Size: 4 GiB Channels: 1 Width: 64-bit Data Race: 800 MT/s
Heartbeat CPU 0 instructions: 10000002 cycles: 2858193 heartbeat IPC: 3.499 cumulative IPC: 3.499 (Simulation time: 00 hr 00 min 35 sec)
Heartbeat CPU 0 instructions: 20000002 cycles: 5502628 heartbeat IPC: 3.782 cumulative IPC: 3.635 (Simulation time: 00 hr 01 min 06 sec)
Warmup finished CPU 0 instructions: 25000002 cycles: 6752629 cumulative IPC: 3.702 (Simulation time: 00 hr 01 min 20 sec)
Warmup complete CPU 0 instructions: 25000002 cycles: 6752629 cumulative IPC: 3.702 (Simulation time: 00 hr 01 min 20 sec)
Heartbeat CPU 0 instructions: 30000000 cycles: 23831118 heartbeat IPC: 0.5456 cumulative IPC: 0.2928 (Simulation time: 00 hr 03 min 16 sec)
Heartbeat CPU 0 instructions: 40000003 cycles: 71143120 heartbeat IPC: 0.2114 cumulative IPC: 0.233 (Simulation time: 00 hr 07 min 53 sec)
Heartbeat CPU 0 instructions: 50000003 cycles: 122998988 heartbeat IPC: 0.1928 cumulative IPC: 0.2151 (Simulation time: 00 hr 11 min 33 sec)
Simulation finished CPU 0 instructions: 25000001 cycles: 116246360 cumulative IPC: 0.2151 (Simulation time: 00 hr 11 min 33 sec)
Simulation complete CPU 0 instructions: 25000001 cycles: 116246360 cumulative IPC: 0.2151 (Simulation time: 00 hr 11 min 33 sec)

ChampSim completed all CPUs

=== Simulation ===
CPU 0 runs ./traces/654.roms_s-1390B.champsimtrace.xz
Region of Interest Statistics

CPU 0 cumulative IPC: 0.2151 instructions: 25000001 cycles: 116246360
CPU 0 Branch Prediction Accuracy: 99.8% MPKI: 0.1142 Average ROB Occupancy at Mispredict: 350.9
Branch type MPKI
BRANCH_DIRECT_JUMP: 4e-05
BRANCH_INDIRECT: 0
BRANCH_CONDITIONAL: 0.114
BRANCH_DIRECT_CALL: 0
BRANCH_INDIRECT_CALL: 0
BRANCH_RETURN: 0

LLC TOTAL        ACCESS:    1442036 HIT:     464606 MISS:     977430
LLC LOAD         ACCESS:     189801 HIT:       4153 MISS:     185648
LLC RFO          ACCESS:     282815 HIT:          1 MISS:     282814
LLC PREFETCH     ACCESS:     514780 HIT:      11008 MISS:     503772
LLC WRITE        ACCESS:     448364 HIT:     448349 MISS:         15
LLC TRANSLATION  ACCESS:       6276 HIT:       1095 MISS:       5181
LLC PREFETCH REQUESTED:          0 ISSUED:          0 USEFUL:          0 USELESS:          0
LLC AVERAGE MISS LATENCY: 1643 cycles
cpu0_DTLB TOTAL        ACCESS:    7060681 HIT:    6940353 MISS:     120328
cpu0_DTLB LOAD         ACCESS:    7060681 HIT:    6940353 MISS:     120328
cpu0_DTLB RFO          ACCESS:          0 HIT:          0 MISS:          0
cpu0_DTLB PREFETCH     ACCESS:          0 HIT:          0 MISS:          0
cpu0_DTLB WRITE        ACCESS:          0 HIT:          0 MISS:          0
cpu0_DTLB TRANSLATION  ACCESS:          0 HIT:          0 MISS:          0
cpu0_DTLB PREFETCH REQUESTED:          0 ISSUED:          0 USEFUL:          0 USELESS:          0
cpu0_DTLB AVERAGE MISS LATENCY: 66.87 cycles
cpu0_ITLB TOTAL        ACCESS:         95 HIT:         76 MISS:         19
cpu0_ITLB LOAD         ACCESS:         95 HIT:         76 MISS:         19
cpu0_ITLB RFO          ACCESS:          0 HIT:          0 MISS:          0
cpu0_ITLB PREFETCH     ACCESS:          0 HIT:          0 MISS:          0
cpu0_ITLB WRITE        ACCESS:          0 HIT:          0 MISS:          0
cpu0_ITLB TRANSLATION  ACCESS:          0 HIT:          0 MISS:          0
cpu0_ITLB PREFETCH REQUESTED:          0 ISSUED:          0 USEFUL:          0 USELESS:          0
cpu0_ITLB AVERAGE MISS LATENCY: 473.4 cycles
cpu0_L1D TOTAL        ACCESS:   10975364 HIT:    4201681 MISS:    6773683
cpu0_L1D LOAD         ACCESS:    5062857 HIT:    2086452 MISS:    2976405
cpu0_L1D RFO          ACCESS:          0 HIT:          0 MISS:          0
cpu0_L1D PREFETCH     ACCESS:    2332121 HIT:     504245 MISS:    1827876
cpu0_L1D WRITE        ACCESS:    3558557 HIT:    1607465 MISS:    1951092
cpu0_L1D TRANSLATION  ACCESS:      21829 HIT:       3519 MISS:      18310
cpu0_L1D PREFETCH REQUESTED:   11541075 ISSUED:    2332119 USEFUL:     434210 USELESS:      12339
cpu0_L1D AVERAGE MISS LATENCY: 129.8 cycles
cpu0_L1I TOTAL        ACCESS:        139 HIT:         12 MISS:        127
cpu0_L1I LOAD         ACCESS:        139 HIT:         12 MISS:        127
cpu0_L1I RFO          ACCESS:          0 HIT:          0 MISS:          0
cpu0_L1I PREFETCH     ACCESS:          0 HIT:          0 MISS:          0
cpu0_L1I WRITE        ACCESS:          0 HIT:          0 MISS:          0
cpu0_L1I TRANSLATION  ACCESS:          0 HIT:          0 MISS:          0
cpu0_L1I PREFETCH REQUESTED:          0 ISSUED:          0 USEFUL:          0 USELESS:          0
cpu0_L1I AVERAGE MISS LATENCY: 470 cycles
cpu0_L2C TOTAL        ACCESS:    1624021 HIT:     530379 MISS:    1093642
cpu0_L2C LOAD         ACCESS:     234736 HIT:      24289 MISS:     210447
cpu0_L2C RFO          ACCESS:     282822 HIT:          7 MISS:     282815
cpu0_L2C PREFETCH     ACCESS:     637542 HIT:      43448 MISS:     594094
cpu0_L2C WRITE        ACCESS:     450612 HIT:     450602 MISS:         10
cpu0_L2C TRANSLATION  ACCESS:      18309 HIT:      12033 MISS:       6276
cpu0_L2C PREFETCH REQUESTED:     190990 ISSUED:     190990 USEFUL:      61546 USELESS:      21283
cpu0_L2C AVERAGE MISS LATENCY: 1444 cycles
cpu0_STLB TOTAL        ACCESS:      31473 HIT:       9736 MISS:      21737
cpu0_STLB LOAD         ACCESS:      31473 HIT:       9736 MISS:      21737
cpu0_STLB RFO          ACCESS:          0 HIT:          0 MISS:          0
cpu0_STLB PREFETCH     ACCESS:          0 HIT:          0 MISS:          0
cpu0_STLB WRITE        ACCESS:          0 HIT:          0 MISS:          0
cpu0_STLB TRANSLATION  ACCESS:          0 HIT:          0 MISS:          0
cpu0_STLB PREFETCH REQUESTED:          0 ISSUED:          0 USEFUL:          0 USELESS:          0
cpu0_STLB AVERAGE MISS LATENCY: 701.1 cycles

DRAM Statistics

Channel 0 RQ ROW_BUFFER_HIT:     211505
  ROW_BUFFER_MISS:     721293
 AVG DBUS CONGESTED CYCLE: 3.944
WQ ROW_BUFFER_HIT: Channel 0 
  ROW_BUFFER_MISS:      22138
  FULL:     419080
