WARNING: physical memory size is smaller than virtual memory size.

*** ChampSim Multicore Out-of-Order Simulator ***
Warmup Instructions: 25000000
Simulation Instructions: 25000000
Number of CPUs: 1
Page size: 4096

Off-chip DRAM Size: 4 GiB Channels: 1 Width: 64-bit Data Race: 800 MT/s
Heartbeat CPU 0 instructions: 10000000 cycles: 2500090 heartbeat IPC: 4 cumulative IPC: 4 (Simulation time: 00 hr 00 min 25 sec)
Heartbeat CPU 0 instructions: 20000000 cycles: 5000090 heartbeat IPC: 4 cumulative IPC: 4 (Simulation time: 00 hr 00 min 51 sec)
Warmup finished CPU 0 instructions: 25000000 cycles: 6250091 cumulative IPC: 4 (Simulation time: 00 hr 01 min 05 sec)
Warmup complete CPU 0 instructions: 25000000 cycles: 6250091 cumulative IPC: 4 (Simulation time: 00 hr 01 min 05 sec)
Heartbeat CPU 0 instructions: 30000000 cycles: 7928468 heartbeat IPC: 3.415 cumulative IPC: 2.979 (Simulation time: 00 hr 01 min 21 sec)
Heartbeat CPU 0 instructions: 40000001 cycles: 11272083 heartbeat IPC: 2.991 cumulative IPC: 2.987 (Simulation time: 00 hr 01 min 54 sec)
Heartbeat CPU 0 instructions: 50000001 cycles: 34356699 heartbeat IPC: 0.4332 cumulative IPC: 0.8895 (Simulation time: 00 hr 04 min 37 sec)
Simulation finished CPU 0 instructions: 25000001 cycles: 28106609 cumulative IPC: 0.8895 (Simulation time: 00 hr 04 min 37 sec)
Simulation complete CPU 0 instructions: 25000001 cycles: 28106609 cumulative IPC: 0.8895 (Simulation time: 00 hr 04 min 37 sec)

ChampSim completed all CPUs

=== Simulation ===
CPU 0 runs ./traces/654.roms_s-1007B.champsimtrace.xz
Region of Interest Statistics

CPU 0 cumulative IPC: 0.8895 instructions: 25000001 cycles: 28106609
CPU 0 Branch Prediction Accuracy: 86.84% MPKI: 12.49 Average ROB Occupancy at Mispredict: 68
Branch type MPKI
BRANCH_DIRECT_JUMP: 0.00016
BRANCH_INDIRECT: 0
BRANCH_CONDITIONAL: 6.26
BRANCH_DIRECT_CALL: 8e-05
BRANCH_INDIRECT_CALL: 0
BRANCH_RETURN: 6.23

LLC TOTAL        ACCESS:     331616 HIT:      84440 MISS:     247176
LLC LOAD         ACCESS:      40344 HIT:        459 MISS:      39885
LLC RFO          ACCESS:      82312 HIT:          0 MISS:      82312
LLC PREFETCH     ACCESS:     124648 HIT:       1354 MISS:     123294
LLC WRITE        ACCESS:      82805 HIT:      82605 MISS:        200
LLC TRANSLATION  ACCESS:       1507 HIT:         22 MISS:       1485
LLC PREFETCH REQUESTED:          0 ISSUED:          0 USEFUL:          0 USELESS:          0
LLC AVERAGE MISS LATENCY: 1281 cycles
cpu0_DTLB TOTAL        ACCESS:    5469936 HIT:    5432706 MISS:      37230
cpu0_DTLB LOAD         ACCESS:    5469936 HIT:    5432706 MISS:      37230
cpu0_DTLB RFO          ACCESS:          0 HIT:          0 MISS:          0
cpu0_DTLB PREFETCH     ACCESS:          0 HIT:          0 MISS:          0
cpu0_DTLB WRITE        ACCESS:          0 HIT:          0 MISS:          0
cpu0_DTLB TRANSLATION  ACCESS:          0 HIT:          0 MISS:          0
cpu0_DTLB PREFETCH REQUESTED:          0 ISSUED:          0 USEFUL:          0 USELESS:          0
cpu0_DTLB AVERAGE MISS LATENCY: 45.71 cycles
cpu0_ITLB TOTAL        ACCESS:         32 HIT:         20 MISS:         12
cpu0_ITLB LOAD         ACCESS:         32 HIT:         20 MISS:         12
cpu0_ITLB RFO          ACCESS:          0 HIT:          0 MISS:          0
cpu0_ITLB PREFETCH     ACCESS:          0 HIT:          0 MISS:          0
cpu0_ITLB WRITE        ACCESS:          0 HIT:          0 MISS:          0
cpu0_ITLB TRANSLATION  ACCESS:          0 HIT:          0 MISS:          0
cpu0_ITLB PREFETCH REQUESTED:          0 ISSUED:          0 USEFUL:          0 USELESS:          0
cpu0_ITLB AVERAGE MISS LATENCY: 151.4 cycles
cpu0_L1D TOTAL        ACCESS:   10442101 HIT:    8947570 MISS:    1494531
cpu0_L1D LOAD         ACCESS:    4192032 HIT:    3615607 MISS:     576425
cpu0_L1D RFO          ACCESS:          0 HIT:          0 MISS:          0
cpu0_L1D PREFETCH     ACCESS:    3333995 HIT:    3003206 MISS:     330789
cpu0_L1D WRITE        ACCESS:    2910272 HIT:    2328666 MISS:     581606
cpu0_L1D TRANSLATION  ACCESS:       5802 HIT:         91 MISS:       5711
cpu0_L1D PREFETCH REQUESTED:    5064512 ISSUED:    3334002 USEFUL:     116743 USELESS:       3754
cpu0_L1D AVERAGE MISS LATENCY: 111.5 cycles
cpu0_L1I TOTAL        ACCESS:         42 HIT:          7 MISS:         35
cpu0_L1I LOAD         ACCESS:         42 HIT:          7 MISS:         35
cpu0_L1I RFO          ACCESS:          0 HIT:          0 MISS:          0
cpu0_L1I PREFETCH     ACCESS:          0 HIT:          0 MISS:          0
cpu0_L1I WRITE        ACCESS:          0 HIT:          0 MISS:          0
cpu0_L1I TRANSLATION  ACCESS:          0 HIT:          0 MISS:          0
cpu0_L1I PREFETCH REQUESTED:          0 ISSUED:          0 USEFUL:          0 USELESS:          0
cpu0_L1I AVERAGE MISS LATENCY: 267.5 cycles
cpu0_L2C TOTAL        ACCESS:     376842 HIT:     124771 MISS:     252071
cpu0_L2C LOAD         ACCESS:      46062 HIT:       5009 MISS:      41053
cpu0_L2C RFO          ACCESS:      82419 HIT:        106 MISS:      82313
cpu0_L2C PREFETCH     ACCESS:     158623 HIT:      31654 MISS:     126969
cpu0_L2C WRITE        ACCESS:      84027 HIT:      83798 MISS:        229
cpu0_L2C TRANSLATION  ACCESS:       5711 HIT:       4204 MISS:       1507
cpu0_L2C PREFETCH REQUESTED:      38139 ISSUED:      38139 USEFUL:      16213 USELESS:       2232
cpu0_L2C AVERAGE MISS LATENCY: 1261 cycles
cpu0_STLB TOTAL        ACCESS:       6092 HIT:        321 MISS:       5771
cpu0_STLB LOAD         ACCESS:       6092 HIT:        321 MISS:       5771
cpu0_STLB RFO          ACCESS:          0 HIT:          0 MISS:          0
cpu0_STLB PREFETCH     ACCESS:          0 HIT:          0 MISS:          0
cpu0_STLB WRITE        ACCESS:          0 HIT:          0 MISS:          0
cpu0_STLB TRANSLATION  ACCESS:          0 HIT:          0 MISS:          0
cpu0_STLB PREFETCH REQUESTED:          0 ISSUED:          0 USEFUL:          0 USELESS:          0
cpu0_STLB AVERAGE MISS LATENCY: 582.5 cycles

DRAM Statistics

Channel 0 RQ ROW_BUFFER_HIT:     120659
  ROW_BUFFER_MISS:     125984
 AVG DBUS CONGESTED CYCLE: 3.881
WQ ROW_BUFFER_HIT: Channel 0 
  ROW_BUFFER_MISS:       4024
  FULL:      79567
