WARNING: physical memory size is smaller than virtual memory size.

*** ChampSim Multicore Out-of-Order Simulator ***
Warmup Instructions: 25000000
Simulation Instructions: 25000000
Number of CPUs: 1
Page size: 4096

Off-chip DRAM Size: 4 GiB Channels: 1 Width: 64-bit Data Race: 800 MT/s
Heartbeat CPU 0 instructions: 10000002 cycles: 2500927 heartbeat IPC: 3.999 cumulative IPC: 3.999 (Simulation time: 00 hr 00 min 25 sec)
Heartbeat CPU 0 instructions: 20000002 cycles: 5001745 heartbeat IPC: 3.999 cumulative IPC: 3.999 (Simulation time: 00 hr 00 min 53 sec)
Warmup finished CPU 0 instructions: 25000002 cycles: 6252153 cumulative IPC: 3.999 (Simulation time: 00 hr 01 min 08 sec)
Warmup complete CPU 0 instructions: 25000002 cycles: 6252153 cumulative IPC: 3.999 (Simulation time: 00 hr 01 min 08 sec)
Heartbeat CPU 0 instructions: 30000003 cycles: 10277157 heartbeat IPC: 1.896 cumulative IPC: 1.242 (Simulation time: 00 hr 01 min 44 sec)
Heartbeat CPU 0 instructions: 40000000 cycles: 18382605 heartbeat IPC: 1.234 cumulative IPC: 1.237 (Simulation time: 00 hr 02 min 58 sec)
Heartbeat CPU 0 instructions: 50000000 cycles: 26476631 heartbeat IPC: 1.235 cumulative IPC: 1.236 (Simulation time: 00 hr 04 min 12 sec)
Simulation finished CPU 0 instructions: 25000002 cycles: 20224480 cumulative IPC: 1.236 (Simulation time: 00 hr 04 min 12 sec)
Simulation complete CPU 0 instructions: 25000002 cycles: 20224480 cumulative IPC: 1.236 (Simulation time: 00 hr 04 min 12 sec)

ChampSim completed all CPUs

=== Simulation ===
CPU 0 runs ./traces/654.roms_s-294B.champsimtrace.xz
Region of Interest Statistics

CPU 0 cumulative IPC: 1.236 instructions: 25000002 cycles: 20224480
CPU 0 Branch Prediction Accuracy: 99.93% MPKI: 0.03748 Average ROB Occupancy at Mispredict: 324
Branch type MPKI
BRANCH_DIRECT_JUMP: 0
BRANCH_INDIRECT: 0
BRANCH_CONDITIONAL: 0.0375
BRANCH_DIRECT_CALL: 0
BRANCH_INDIRECT_CALL: 0
BRANCH_RETURN: 0

LLC TOTAL        ACCESS:     343803 HIT:      57445 MISS:     286358
LLC LOAD         ACCESS:      25799 HIT:       3772 MISS:      22027
LLC RFO          ACCESS:       2560 HIT:         53 MISS:       2507
LLC PREFETCH     ACCESS:     300737 HIT:      48462 MISS:     252275
LLC WRITE        ACCESS:       2635 HIT:       2544 MISS:         91
LLC TRANSLATION  ACCESS:      12072 HIT:       2614 MISS:       9458
LLC PREFETCH REQUESTED:          0 ISSUED:          0 USEFUL:          0 USELESS:          0
LLC AVERAGE MISS LATENCY: 362.8 cycles
cpu0_DTLB TOTAL        ACCESS:    6721739 HIT:    6681198 MISS:      40541
cpu0_DTLB LOAD         ACCESS:    6721739 HIT:    6681198 MISS:      40541
cpu0_DTLB RFO          ACCESS:          0 HIT:          0 MISS:          0
cpu0_DTLB PREFETCH     ACCESS:          0 HIT:          0 MISS:          0
cpu0_DTLB WRITE        ACCESS:          0 HIT:          0 MISS:          0
cpu0_DTLB TRANSLATION  ACCESS:          0 HIT:          0 MISS:          0
cpu0_DTLB PREFETCH REQUESTED:          0 ISSUED:          0 USEFUL:          0 USELESS:          0
cpu0_DTLB AVERAGE MISS LATENCY: 98.98 cycles
cpu0_ITLB TOTAL        ACCESS:          0 HIT:          0 MISS:          0
cpu0_ITLB LOAD         ACCESS:          0 HIT:          0 MISS:          0
cpu0_ITLB RFO          ACCESS:          0 HIT:          0 MISS:          0
cpu0_ITLB PREFETCH     ACCESS:          0 HIT:          0 MISS:          0
cpu0_ITLB WRITE        ACCESS:          0 HIT:          0 MISS:          0
cpu0_ITLB TRANSLATION  ACCESS:          0 HIT:          0 MISS:          0
cpu0_ITLB PREFETCH REQUESTED:          0 ISSUED:          0 USEFUL:          0 USELESS:          0
cpu0_ITLB AVERAGE MISS LATENCY: -nan cycles
cpu0_L1D TOTAL        ACCESS:   10216094 HIT:    7995925 MISS:    2220169
cpu0_L1D LOAD         ACCESS:    7238219 HIT:    5944344 MISS:    1293875
cpu0_L1D RFO          ACCESS:          0 HIT:          0 MISS:          0
cpu0_L1D PREFETCH     ACCESS:    2115544 HIT:    1216697 MISS:     898847
cpu0_L1D WRITE        ACCESS:     849933 HIT:     834789 MISS:      15144
cpu0_L1D TRANSLATION  ACCESS:      12398 HIT:         95 MISS:      12303
cpu0_L1D PREFETCH REQUESTED:    7238457 ISSUED:    2115544 USEFUL:     417935 USELESS:      11763
cpu0_L1D AVERAGE MISS LATENCY: 18.11 cycles
cpu0_L1I TOTAL        ACCESS:          0 HIT:          0 MISS:          0
cpu0_L1I LOAD         ACCESS:          0 HIT:          0 MISS:          0
cpu0_L1I RFO          ACCESS:          0 HIT:          0 MISS:          0
cpu0_L1I PREFETCH     ACCESS:          0 HIT:          0 MISS:          0
cpu0_L1I WRITE        ACCESS:          0 HIT:          0 MISS:          0
cpu0_L1I TRANSLATION  ACCESS:          0 HIT:          0 MISS:          0
cpu0_L1I PREFETCH REQUESTED:          0 ISSUED:          0 USEFUL:          0 USELESS:          0
cpu0_L1I AVERAGE MISS LATENCY: -nan cycles
cpu0_L2C TOTAL        ACCESS:     590756 HIT:     247110 MISS:     343646
cpu0_L2C LOAD         ACCESS:      43021 HIT:      17201 MISS:      25820
cpu0_L2C RFO          ACCESS:       2595 HIT:         35 MISS:       2560
cpu0_L2C PREFETCH     ACCESS:     437417 HIT:     134223 MISS:     303194
cpu0_L2C WRITE        ACCESS:      95476 HIT:      95476 MISS:          0
cpu0_L2C TRANSLATION  ACCESS:      12247 HIT:        175 MISS:      12072
cpu0_L2C PREFETCH REQUESTED:       7716 ISSUED:       7716 USEFUL:       1388 USELESS:       1316
cpu0_L2C AVERAGE MISS LATENCY: 322.6 cycles
cpu0_STLB TOTAL        ACCESS:       9850 HIT:       1635 MISS:       8215
cpu0_STLB LOAD         ACCESS:       9850 HIT:       1635 MISS:       8215
cpu0_STLB RFO          ACCESS:          0 HIT:          0 MISS:          0
cpu0_STLB PREFETCH     ACCESS:          0 HIT:          0 MISS:          0
cpu0_STLB WRITE        ACCESS:          0 HIT:          0 MISS:          0
cpu0_STLB TRANSLATION  ACCESS:          0 HIT:          0 MISS:          0
cpu0_STLB PREFETCH REQUESTED:          0 ISSUED:          0 USEFUL:          0 USELESS:          0
cpu0_STLB AVERAGE MISS LATENCY: 810.2 cycles

DRAM Statistics

Channel 0 RQ ROW_BUFFER_HIT:     223393
  ROW_BUFFER_MISS:      62189
 AVG DBUS CONGESTED CYCLE: 3.888
WQ ROW_BUFFER_HIT: Channel 0 
  ROW_BUFFER_MISS:        519
  FULL:       2036
