WARNING: physical memory size is smaller than virtual memory size.

*** ChampSim Multicore Out-of-Order Simulator ***
Warmup Instructions: 25000000
Simulation Instructions: 25000000
Number of CPUs: 1
Page size: 4096

Off-chip DRAM Size: 4 GiB Channels: 1 Width: 64-bit Data Race: 800 MT/s
Heartbeat CPU 0 instructions: 10000000 cycles: 2503066 heartbeat IPC: 3.995 cumulative IPC: 3.995 (Simulation time: 00 hr 00 min 29 sec)
Heartbeat CPU 0 instructions: 20000001 cycles: 5007531 heartbeat IPC: 3.993 cumulative IPC: 3.994 (Simulation time: 00 hr 00 min 58 sec)
Warmup finished CPU 0 instructions: 25000000 cycles: 6259011 cumulative IPC: 3.994 (Simulation time: 00 hr 01 min 13 sec)
Warmup complete CPU 0 instructions: 25000000 cycles: 6259011 cumulative IPC: 3.994 (Simulation time: 00 hr 01 min 13 sec)
Heartbeat CPU 0 instructions: 30000001 cycles: 9610614 heartbeat IPC: 2.172 cumulative IPC: 1.492 (Simulation time: 00 hr 01 min 38 sec)
Heartbeat CPU 0 instructions: 40000002 cycles: 16934841 heartbeat IPC: 1.365 cumulative IPC: 1.405 (Simulation time: 00 hr 02 min 30 sec)
Heartbeat CPU 0 instructions: 50000001 cycles: 24148925 heartbeat IPC: 1.386 cumulative IPC: 1.397 (Simulation time: 00 hr 03 min 22 sec)
Simulation finished CPU 0 instructions: 25000001 cycles: 17889915 cumulative IPC: 1.397 (Simulation time: 00 hr 03 min 22 sec)
Simulation complete CPU 0 instructions: 25000001 cycles: 17889915 cumulative IPC: 1.397 (Simulation time: 00 hr 03 min 22 sec)

ChampSim completed all CPUs

=== Simulation ===
CPU 0 runs ./traces/657.xz_s-3167B.champsimtrace.xz
Region of Interest Statistics

CPU 0 cumulative IPC: 1.397 instructions: 25000001 cycles: 17889915
CPU 0 Branch Prediction Accuracy: 89.96% MPKI: 14.78 Average ROB Occupancy at Mispredict: 34.03
Branch type MPKI
BRANCH_DIRECT_JUMP: 0.0787
BRANCH_INDIRECT: 0.897
BRANCH_CONDITIONAL: 13.8
BRANCH_DIRECT_CALL: 0
BRANCH_INDIRECT_CALL: 0.00248
BRANCH_RETURN: 0

LLC TOTAL        ACCESS:     215906 HIT:     157917 MISS:      57989
LLC LOAD         ACCESS:      63601 HIT:      39537 MISS:      24064
LLC RFO          ACCESS:      12102 HIT:       5544 MISS:       6558
LLC PREFETCH     ACCESS:      69608 HIT:      43057 MISS:      26551
LLC WRITE        ACCESS:      58255 HIT:      58045 MISS:        210
LLC TRANSLATION  ACCESS:      12340 HIT:      11734 MISS:        606
LLC PREFETCH REQUESTED:          0 ISSUED:          0 USEFUL:          0 USELESS:          0
LLC AVERAGE MISS LATENCY: 277.5 cycles
cpu0_DTLB TOTAL        ACCESS:    5182961 HIT:    5007397 MISS:     175564
cpu0_DTLB LOAD         ACCESS:    5182961 HIT:    5007397 MISS:     175564
cpu0_DTLB RFO          ACCESS:          0 HIT:          0 MISS:          0
cpu0_DTLB PREFETCH     ACCESS:          0 HIT:          0 MISS:          0
cpu0_DTLB WRITE        ACCESS:          0 HIT:          0 MISS:          0
cpu0_DTLB TRANSLATION  ACCESS:          0 HIT:          0 MISS:          0
cpu0_DTLB PREFETCH REQUESTED:          0 ISSUED:          0 USEFUL:          0 USELESS:          0
cpu0_DTLB AVERAGE MISS LATENCY: 12.06 cycles
cpu0_ITLB TOTAL        ACCESS:     176552 HIT:     176552 MISS:          0
cpu0_ITLB LOAD         ACCESS:     176552 HIT:     176552 MISS:          0
cpu0_ITLB RFO          ACCESS:          0 HIT:          0 MISS:          0
cpu0_ITLB PREFETCH     ACCESS:          0 HIT:          0 MISS:          0
cpu0_ITLB WRITE        ACCESS:          0 HIT:          0 MISS:          0
cpu0_ITLB TRANSLATION  ACCESS:          0 HIT:          0 MISS:          0
cpu0_ITLB PREFETCH REQUESTED:          0 ISSUED:          0 USEFUL:          0 USELESS:          0
cpu0_ITLB AVERAGE MISS LATENCY: -nan cycles
cpu0_L1D TOTAL        ACCESS:   11022711 HIT:   10542874 MISS:     479837
cpu0_L1D LOAD         ACCESS:    5062538 HIT:    4872703 MISS:     189835
cpu0_L1D RFO          ACCESS:          0 HIT:          0 MISS:          0
cpu0_L1D PREFETCH     ACCESS:    4242125 HIT:    4042380 MISS:     199745
cpu0_L1D WRITE        ACCESS:    1700211 HIT:    1627228 MISS:      72983
cpu0_L1D TRANSLATION  ACCESS:      17837 HIT:        563 MISS:      17274
cpu0_L1D PREFETCH REQUESTED:    5069023 ISSUED:    4242124 USEFUL:      23102 USELESS:     118165
cpu0_L1D AVERAGE MISS LATENCY: 45.4 cycles
cpu0_L1I TOTAL        ACCESS:     214585 HIT:     214444 MISS:        141
cpu0_L1I LOAD         ACCESS:     214585 HIT:     214444 MISS:        141
cpu0_L1I RFO          ACCESS:          0 HIT:          0 MISS:          0
cpu0_L1I PREFETCH     ACCESS:          0 HIT:          0 MISS:          0
cpu0_L1I WRITE        ACCESS:          0 HIT:          0 MISS:          0
cpu0_L1I TRANSLATION  ACCESS:          0 HIT:          0 MISS:          0
cpu0_L1I PREFETCH REQUESTED:          0 ISSUED:          0 USEFUL:          0 USELESS:          0
cpu0_L1I AVERAGE MISS LATENCY: 48.04 cycles
cpu0_L2C TOTAL        ACCESS:     497191 HIT:     337418 MISS:     159773
cpu0_L2C LOAD         ACCESS:     134267 HIT:      70563 MISS:      63704
cpu0_L2C RFO          ACCESS:      49185 HIT:      37083 MISS:      12102
cpu0_L2C PREFETCH     ACCESS:     150191 HIT:      78762 MISS:      71429
cpu0_L2C WRITE        ACCESS:     146285 HIT:     146087 MISS:        198
cpu0_L2C TRANSLATION  ACCESS:      17263 HIT:       4923 MISS:      12340
cpu0_L2C PREFETCH REQUESTED:       8947 ISSUED:       8947 USEFUL:        912 USELESS:       1165
cpu0_L2C AVERAGE MISS LATENCY: 120.8 cycles
cpu0_STLB TOTAL        ACCESS:     144113 HIT:     126276 MISS:      17837
cpu0_STLB LOAD         ACCESS:     144113 HIT:     126276 MISS:      17837
cpu0_STLB RFO          ACCESS:          0 HIT:          0 MISS:          0
cpu0_STLB PREFETCH     ACCESS:          0 HIT:          0 MISS:          0
cpu0_STLB WRITE        ACCESS:          0 HIT:          0 MISS:          0
cpu0_STLB TRANSLATION  ACCESS:          0 HIT:          0 MISS:          0
cpu0_STLB PREFETCH REQUESTED:          0 ISSUED:          0 USEFUL:          0 USELESS:          0
cpu0_STLB AVERAGE MISS LATENCY: 59.33 cycles

DRAM Statistics

Channel 0 RQ ROW_BUFFER_HIT:       2806
  ROW_BUFFER_MISS:      54971
 AVG DBUS CONGESTED CYCLE: 3.963
WQ ROW_BUFFER_HIT: Channel 0 
  ROW_BUFFER_MISS:       4815
  FULL:      24122
