WARNING: physical memory size is smaller than virtual memory size.

*** ChampSim Multicore Out-of-Order Simulator ***
Warmup Instructions: 25000000
Simulation Instructions: 25000000
Number of CPUs: 1
Page size: 4096

Off-chip DRAM Size: 4 GiB Channels: 1 Width: 64-bit Data Race: 800 MT/s
Heartbeat CPU 0 instructions: 10000003 cycles: 2991937 heartbeat IPC: 3.342 cumulative IPC: 3.342 (Simulation time: 00 hr 00 min 58 sec)
Heartbeat CPU 0 instructions: 20000001 cycles: 5656134 heartbeat IPC: 3.753 cumulative IPC: 3.536 (Simulation time: 00 hr 01 min 52 sec)
Warmup finished CPU 0 instructions: 25000001 cycles: 7070252 cumulative IPC: 3.536 (Simulation time: 00 hr 02 min 20 sec)
Warmup complete CPU 0 instructions: 25000001 cycles: 7070252 cumulative IPC: 3.536 (Simulation time: 00 hr 02 min 20 sec)
Heartbeat CPU 0 instructions: 30000003 cycles: 64748365 heartbeat IPC: 0.1692 cumulative IPC: 0.08669 (Simulation time: 00 hr 09 min 00 sec)
Heartbeat CPU 0 instructions: 40000003 cycles: 175005900 heartbeat IPC: 0.0907 cumulative IPC: 0.08932 (Simulation time: 00 hr 22 min 28 sec)
Heartbeat CPU 0 instructions: 50000001 cycles: 273032043 heartbeat IPC: 0.102 cumulative IPC: 0.094 (Simulation time: 00 hr 32 min 02 sec)
Simulation finished CPU 0 instructions: 25000000 cycles: 265961792 cumulative IPC: 0.094 (Simulation time: 00 hr 32 min 02 sec)
Simulation complete CPU 0 instructions: 25000000 cycles: 265961792 cumulative IPC: 0.094 (Simulation time: 00 hr 32 min 02 sec)

ChampSim completed all CPUs

=== Simulation ===
CPU 0 runs ./traces/astar_313B.trace.xz
Region of Interest Statistics

CPU 0 cumulative IPC: 0.094 instructions: 25000000 cycles: 265961792
CPU 0 Branch Prediction Accuracy: 86.94% MPKI: 27.53 Average ROB Occupancy at Mispredict: 14.91
Branch type MPKI
BRANCH_DIRECT_JUMP: 0
BRANCH_INDIRECT: 0
BRANCH_CONDITIONAL: 27.5
BRANCH_DIRECT_CALL: 0
BRANCH_INDIRECT_CALL: 0.00048
BRANCH_RETURN: 0.00032

LLC TOTAL        ACCESS:    2789730 HIT:    1081611 MISS:    1708119
LLC LOAD         ACCESS:     485205 HIT:     141927 MISS:     343278
LLC RFO          ACCESS:     540028 HIT:      17152 MISS:     522876
LLC PREFETCH     ACCESS:     698593 HIT:     113464 MISS:     585129
LLC WRITE        ACCESS:     770683 HIT:     770192 MISS:        491
LLC TRANSLATION  ACCESS:     295221 HIT:      38876 MISS:     256345
LLC PREFETCH REQUESTED:          0 ISSUED:          0 USEFUL:          0 USELESS:          0
LLC AVERAGE MISS LATENCY: 924 cycles
cpu0_DTLB TOTAL        ACCESS:    9258133 HIT:    8036693 MISS:    1221440
cpu0_DTLB LOAD         ACCESS:    9258133 HIT:    8036693 MISS:    1221440
cpu0_DTLB RFO          ACCESS:          0 HIT:          0 MISS:          0
cpu0_DTLB PREFETCH     ACCESS:          0 HIT:          0 MISS:          0
cpu0_DTLB WRITE        ACCESS:          0 HIT:          0 MISS:          0
cpu0_DTLB TRANSLATION  ACCESS:          0 HIT:          0 MISS:          0
cpu0_DTLB PREFETCH REQUESTED:          0 ISSUED:          0 USEFUL:          0 USELESS:          0
cpu0_DTLB AVERAGE MISS LATENCY: 338.8 cycles
cpu0_ITLB TOTAL        ACCESS:         33 HIT:         33 MISS:          0
cpu0_ITLB LOAD         ACCESS:         33 HIT:         33 MISS:          0
cpu0_ITLB RFO          ACCESS:          0 HIT:          0 MISS:          0
cpu0_ITLB PREFETCH     ACCESS:          0 HIT:          0 MISS:          0
cpu0_ITLB WRITE        ACCESS:          0 HIT:          0 MISS:          0
cpu0_ITLB TRANSLATION  ACCESS:          0 HIT:          0 MISS:          0
cpu0_ITLB PREFETCH REQUESTED:          0 ISSUED:          0 USEFUL:          0 USELESS:          0
cpu0_ITLB AVERAGE MISS LATENCY: -nan cycles
cpu0_L1D TOTAL        ACCESS:   19204796 HIT:   15651030 MISS:    3553766
cpu0_L1D LOAD         ACCESS:    8433735 HIT:    7287797 MISS:    1145938
cpu0_L1D RFO          ACCESS:          0 HIT:          0 MISS:          0
cpu0_L1D PREFETCH     ACCESS:    7617836 HIT:    6166589 MISS:    1451247
cpu0_L1D WRITE        ACCESS:    2578812 HIT:    2013464 MISS:     565348
cpu0_L1D TRANSLATION  ACCESS:     574413 HIT:     183180 MISS:     391233
cpu0_L1D PREFETCH REQUESTED:   13392405 ISSUED:    7617836 USEFUL:     133215 USELESS:     782455
cpu0_L1D AVERAGE MISS LATENCY: 445.2 cycles
cpu0_L1I TOTAL        ACCESS:         35 HIT:         35 MISS:          0
cpu0_L1I LOAD         ACCESS:         35 HIT:         35 MISS:          0
cpu0_L1I RFO          ACCESS:          0 HIT:          0 MISS:          0
cpu0_L1I PREFETCH     ACCESS:          0 HIT:          0 MISS:          0
cpu0_L1I WRITE        ACCESS:          0 HIT:          0 MISS:          0
cpu0_L1I TRANSLATION  ACCESS:          0 HIT:          0 MISS:          0
cpu0_L1I PREFETCH REQUESTED:          0 ISSUED:          0 USEFUL:          0 USELESS:          0
cpu0_L1I AVERAGE MISS LATENCY: -nan cycles
cpu0_L2C TOTAL        ACCESS:    3736674 HIT:    1680102 MISS:    2056572
cpu0_L2C LOAD         ACCESS:     906506 HIT:     409942 MISS:     496564
cpu0_L2C RFO          ACCESS:     565089 HIT:      25061 MISS:     540028
cpu0_L2C PREFETCH     ACCESS:    1081556 HIT:     356847 MISS:     724709
cpu0_L2C WRITE        ACCESS:     793313 HIT:     793263 MISS:         50
cpu0_L2C TRANSLATION  ACCESS:     390210 HIT:      94989 MISS:     295221
cpu0_L2C PREFETCH REQUESTED:     165716 ISSUED:     165716 USEFUL:      17875 USELESS:        608
cpu0_L2C AVERAGE MISS LATENCY: 762.4 cycles
cpu0_STLB TOTAL        ACCESS:     992107 HIT:     479593 MISS:     512514
cpu0_STLB LOAD         ACCESS:     992107 HIT:     479593 MISS:     512514
cpu0_STLB RFO          ACCESS:          0 HIT:          0 MISS:          0
cpu0_STLB PREFETCH     ACCESS:          0 HIT:          0 MISS:          0
cpu0_STLB WRITE        ACCESS:          0 HIT:          0 MISS:          0
cpu0_STLB TRANSLATION  ACCESS:          0 HIT:          0 MISS:          0
cpu0_STLB PREFETCH REQUESTED:          0 ISSUED:          0 USEFUL:          0 USELESS:          0
cpu0_STLB AVERAGE MISS LATENCY: 847.9 cycles

DRAM Statistics

Channel 0 RQ ROW_BUFFER_HIT:      81448
  ROW_BUFFER_MISS:    1542635
 AVG DBUS CONGESTED CYCLE: 3.978
WQ ROW_BUFFER_HIT: Channel 0 
  ROW_BUFFER_MISS:        974
  FULL:     753696
