WARNING: physical memory size is smaller than virtual memory size.

*** ChampSim Multicore Out-of-Order Simulator ***
Warmup Instructions: 25000000
Simulation Instructions: 25000000
Number of CPUs: 1
Page size: 4096

Off-chip DRAM Size: 4 GiB Channels: 1 Width: 64-bit Data Race: 800 MT/s
Heartbeat CPU 0 instructions: 10000000 cycles: 2510846 heartbeat IPC: 3.983 cumulative IPC: 3.983 (Simulation time: 00 hr 00 min 47 sec)
Heartbeat CPU 0 instructions: 20000002 cycles: 5069433 heartbeat IPC: 3.908 cumulative IPC: 3.945 (Simulation time: 00 hr 01 min 36 sec)
Warmup finished CPU 0 instructions: 25000003 cycles: 6384478 cumulative IPC: 3.916 (Simulation time: 00 hr 02 min 01 sec)
Warmup complete CPU 0 instructions: 25000003 cycles: 6384478 cumulative IPC: 3.916 (Simulation time: 00 hr 02 min 01 sec)
Heartbeat CPU 0 instructions: 30000002 cycles: 9921672 heartbeat IPC: 2.061 cumulative IPC: 1.414 (Simulation time: 00 hr 02 min 46 sec)
Heartbeat CPU 0 instructions: 40000001 cycles: 21057104 heartbeat IPC: 0.898 cumulative IPC: 1.022 (Simulation time: 00 hr 04 min 55 sec)
Heartbeat CPU 0 instructions: 50000003 cycles: 32003450 heartbeat IPC: 0.9135 cumulative IPC: 0.9758 (Simulation time: 00 hr 07 min 00 sec)
Simulation finished CPU 0 instructions: 25000000 cycles: 25618973 cumulative IPC: 0.9758 (Simulation time: 00 hr 07 min 00 sec)
Simulation complete CPU 0 instructions: 25000000 cycles: 25618973 cumulative IPC: 0.9758 (Simulation time: 00 hr 07 min 00 sec)

ChampSim completed all CPUs

=== Simulation ===
CPU 0 runs ./traces/cactusADM_1039B.trace.xz
Region of Interest Statistics

CPU 0 cumulative IPC: 0.9758 instructions: 25000000 cycles: 25618973
CPU 0 Branch Prediction Accuracy: 98.22% MPKI: 0.03732 Average ROB Occupancy at Mispredict: 276.6
Branch type MPKI
BRANCH_DIRECT_JUMP: 0
BRANCH_INDIRECT: 0
BRANCH_CONDITIONAL: 0.0373
BRANCH_DIRECT_CALL: 0
BRANCH_INDIRECT_CALL: 0
BRANCH_RETURN: 0

LLC TOTAL        ACCESS:     315355 HIT:      74763 MISS:     240592
LLC LOAD         ACCESS:      37063 HIT:       3089 MISS:      33974
LLC RFO          ACCESS:      67002 HIT:         82 MISS:      66920
LLC PREFETCH     ACCESS:     134522 HIT:       5507 MISS:     129015
LLC WRITE        ACCESS:      66031 HIT:      65964 MISS:         67
LLC TRANSLATION  ACCESS:      10737 HIT:        121 MISS:      10616
LLC PREFETCH REQUESTED:          0 ISSUED:          0 USEFUL:          0 USELESS:          0
LLC AVERAGE MISS LATENCY: 1054 cycles
cpu0_DTLB TOTAL        ACCESS:    5844787 HIT:    5255957 MISS:     588830
cpu0_DTLB LOAD         ACCESS:    5844787 HIT:    5255957 MISS:     588830
cpu0_DTLB RFO          ACCESS:          0 HIT:          0 MISS:          0
cpu0_DTLB PREFETCH     ACCESS:          0 HIT:          0 MISS:          0
cpu0_DTLB WRITE        ACCESS:          0 HIT:          0 MISS:          0
cpu0_DTLB TRANSLATION  ACCESS:          0 HIT:          0 MISS:          0
cpu0_DTLB PREFETCH REQUESTED:          0 ISSUED:          0 USEFUL:          0 USELESS:          0
cpu0_DTLB AVERAGE MISS LATENCY: 29.9 cycles
cpu0_ITLB TOTAL        ACCESS:    3539426 HIT:    3539426 MISS:          0
cpu0_ITLB LOAD         ACCESS:    3539426 HIT:    3539426 MISS:          0
cpu0_ITLB RFO          ACCESS:          0 HIT:          0 MISS:          0
cpu0_ITLB PREFETCH     ACCESS:          0 HIT:          0 MISS:          0
cpu0_ITLB WRITE        ACCESS:          0 HIT:          0 MISS:          0
cpu0_ITLB TRANSLATION  ACCESS:          0 HIT:          0 MISS:          0
cpu0_ITLB PREFETCH REQUESTED:          0 ISSUED:          0 USEFUL:          0 USELESS:          0
cpu0_ITLB AVERAGE MISS LATENCY: -nan cycles
cpu0_L1D TOTAL        ACCESS:    9907439 HIT:    9082146 MISS:     825293
cpu0_L1D LOAD         ACCESS:    5776151 HIT:    5549088 MISS:     227063
cpu0_L1D RFO          ACCESS:          0 HIT:          0 MISS:          0
cpu0_L1D PREFETCH     ACCESS:     980326 HIT:     845751 MISS:     134575
cpu0_L1D WRITE        ACCESS:    2915406 HIT:    2576243 MISS:     339163
cpu0_L1D TRANSLATION  ACCESS:     235556 HIT:     111064 MISS:     124492
cpu0_L1D PREFETCH REQUESTED:    6427786 ISSUED:     980325 USEFUL:      93752 USELESS:       3617
cpu0_L1D AVERAGE MISS LATENCY: 193 cycles
cpu0_L1I TOTAL        ACCESS:    4644835 HIT:    4644835 MISS:          0
cpu0_L1I LOAD         ACCESS:    4644835 HIT:    4644835 MISS:          0
cpu0_L1I RFO          ACCESS:          0 HIT:          0 MISS:          0
cpu0_L1I PREFETCH     ACCESS:          0 HIT:          0 MISS:          0
cpu0_L1I WRITE        ACCESS:          0 HIT:          0 MISS:          0
cpu0_L1I TRANSLATION  ACCESS:          0 HIT:          0 MISS:          0
cpu0_L1I PREFETCH REQUESTED:          0 ISSUED:          0 USEFUL:          0 USELESS:          0
cpu0_L1I AVERAGE MISS LATENCY: -nan cycles
cpu0_L2C TOTAL        ACCESS:     854515 HIT:     602590 MISS:     251925
cpu0_L2C LOAD         ACCESS:     193123 HIT:     155553 MISS:      37570
cpu0_L2C RFO          ACCESS:      68901 HIT:       1899 MISS:      67002
cpu0_L2C PREFETCH     ACCESS:     397163 HIT:     260635 MISS:     136528
cpu0_L2C WRITE        ACCESS:      70876 HIT:      70788 MISS:         88
cpu0_L2C TRANSLATION  ACCESS:     124452 HIT:     113715 MISS:      10737
cpu0_L2C PREFETCH REQUESTED:     299859 ISSUED:     299786 USEFUL:      67939 USELESS:        297
cpu0_L2C AVERAGE MISS LATENCY: 971.1 cycles
cpu0_STLB TOTAL        ACCESS:     433790 HIT:     306760 MISS:     127030
cpu0_STLB LOAD         ACCESS:     433790 HIT:     306760 MISS:     127030
cpu0_STLB RFO          ACCESS:          0 HIT:          0 MISS:          0
cpu0_STLB PREFETCH     ACCESS:          0 HIT:          0 MISS:          0
cpu0_STLB WRITE        ACCESS:          0 HIT:          0 MISS:          0
cpu0_STLB TRANSLATION  ACCESS:          0 HIT:          0 MISS:          0
cpu0_STLB PREFETCH REQUESTED:          0 ISSUED:          0 USEFUL:          0 USELESS:          0
cpu0_STLB AVERAGE MISS LATENCY: 152.6 cycles

DRAM Statistics

Channel 0 RQ ROW_BUFFER_HIT:      35057
  ROW_BUFFER_MISS:     201752
 AVG DBUS CONGESTED CYCLE: 3.938
WQ ROW_BUFFER_HIT: Channel 0 
  ROW_BUFFER_MISS:       1378
  FULL:      64384
