WARNING: physical memory size is smaller than virtual memory size.

*** ChampSim Multicore Out-of-Order Simulator ***
Warmup Instructions: 25000000
Simulation Instructions: 25000000
Number of CPUs: 1
Page size: 4096

Off-chip DRAM Size: 4 GiB Channels: 1 Width: 64-bit Data Race: 800 MT/s
Heartbeat CPU 0 instructions: 10000001 cycles: 2566620 heartbeat IPC: 3.896 cumulative IPC: 3.896 (Simulation time: 00 hr 00 min 48 sec)
Heartbeat CPU 0 instructions: 20000002 cycles: 5069532 heartbeat IPC: 3.995 cumulative IPC: 3.945 (Simulation time: 00 hr 01 min 37 sec)
Warmup finished CPU 0 instructions: 25000001 cycles: 6383522 cumulative IPC: 3.916 (Simulation time: 00 hr 02 min 02 sec)
Warmup complete CPU 0 instructions: 25000001 cycles: 6383522 cumulative IPC: 3.916 (Simulation time: 00 hr 02 min 02 sec)
Heartbeat CPU 0 instructions: 30000000 cycles: 9506705 heartbeat IPC: 2.254 cumulative IPC: 1.601 (Simulation time: 00 hr 02 min 45 sec)
Heartbeat CPU 0 instructions: 40000001 cycles: 21018781 heartbeat IPC: 0.8687 cumulative IPC: 1.025 (Simulation time: 00 hr 04 min 55 sec)
Heartbeat CPU 0 instructions: 50000002 cycles: 32087560 heartbeat IPC: 0.9034 cumulative IPC: 0.9726 (Simulation time: 00 hr 07 min 01 sec)
Simulation finished CPU 0 instructions: 25000001 cycles: 25704039 cumulative IPC: 0.9726 (Simulation time: 00 hr 07 min 01 sec)
Simulation complete CPU 0 instructions: 25000001 cycles: 25704039 cumulative IPC: 0.9726 (Simulation time: 00 hr 07 min 01 sec)

ChampSim completed all CPUs

=== Simulation ===
CPU 0 runs ./traces/cactusADM_1495B.trace.xz
Region of Interest Statistics

CPU 0 cumulative IPC: 0.9726 instructions: 25000001 cycles: 25704039
CPU 0 Branch Prediction Accuracy: 98.22% MPKI: 0.03736 Average ROB Occupancy at Mispredict: 275.7
Branch type MPKI
BRANCH_DIRECT_JUMP: 0
BRANCH_INDIRECT: 0
BRANCH_CONDITIONAL: 0.0374
BRANCH_DIRECT_CALL: 0
BRANCH_INDIRECT_CALL: 0
BRANCH_RETURN: 0

LLC TOTAL        ACCESS:     316534 HIT:      74819 MISS:     241715
LLC LOAD         ACCESS:      37138 HIT:       2725 MISS:      34413
LLC RFO          ACCESS:      67008 HIT:          0 MISS:      67008
LLC PREFETCH     ACCESS:     134218 HIT:       5015 MISS:     129203
LLC WRITE        ACCESS:      67040 HIT:      66951 MISS:         89
LLC TRANSLATION  ACCESS:      11130 HIT:        128 MISS:      11002
LLC PREFETCH REQUESTED:          0 ISSUED:          0 USEFUL:          0 USELESS:          0
LLC AVERAGE MISS LATENCY: 1052 cycles
cpu0_DTLB TOTAL        ACCESS:    5782362 HIT:    5238323 MISS:     544039
cpu0_DTLB LOAD         ACCESS:    5782362 HIT:    5238323 MISS:     544039
cpu0_DTLB RFO          ACCESS:          0 HIT:          0 MISS:          0
cpu0_DTLB PREFETCH     ACCESS:          0 HIT:          0 MISS:          0
cpu0_DTLB WRITE        ACCESS:          0 HIT:          0 MISS:          0
cpu0_DTLB TRANSLATION  ACCESS:          0 HIT:          0 MISS:          0
cpu0_DTLB PREFETCH REQUESTED:          0 ISSUED:          0 USEFUL:          0 USELESS:          0
cpu0_DTLB AVERAGE MISS LATENCY: 31.47 cycles
cpu0_ITLB TOTAL        ACCESS:    3538533 HIT:    3538533 MISS:          0
cpu0_ITLB LOAD         ACCESS:    3538533 HIT:    3538533 MISS:          0
cpu0_ITLB RFO          ACCESS:          0 HIT:          0 MISS:          0
cpu0_ITLB PREFETCH     ACCESS:          0 HIT:          0 MISS:          0
cpu0_ITLB WRITE        ACCESS:          0 HIT:          0 MISS:          0
cpu0_ITLB TRANSLATION  ACCESS:          0 HIT:          0 MISS:          0
cpu0_ITLB PREFETCH REQUESTED:          0 ISSUED:          0 USEFUL:          0 USELESS:          0
cpu0_ITLB AVERAGE MISS LATENCY: -nan cycles
cpu0_L1D TOTAL        ACCESS:    9976593 HIT:    9133453 MISS:     843140
cpu0_L1D LOAD         ACCESS:    5828459 HIT:    5606709 MISS:     221750
cpu0_L1D RFO          ACCESS:          0 HIT:          0 MISS:          0
cpu0_L1D PREFETCH     ACCESS:     996400 HIT:     851459 MISS:     144941
cpu0_L1D WRITE        ACCESS:    2915415 HIT:    2566164 MISS:     349251
cpu0_L1D TRANSLATION  ACCESS:     236319 HIT:     109121 MISS:     127198
cpu0_L1D PREFETCH REQUESTED:    6474278 ISSUED:     996400 USEFUL:     100230 USELESS:       4518
cpu0_L1D AVERAGE MISS LATENCY: 191.5 cycles
cpu0_L1I TOTAL        ACCESS:    4645788 HIT:    4645788 MISS:          0
cpu0_L1I LOAD         ACCESS:    4645788 HIT:    4645788 MISS:          0
cpu0_L1I RFO          ACCESS:          0 HIT:          0 MISS:          0
cpu0_L1I PREFETCH     ACCESS:          0 HIT:          0 MISS:          0
cpu0_L1I WRITE        ACCESS:          0 HIT:          0 MISS:          0
cpu0_L1I TRANSLATION  ACCESS:          0 HIT:          0 MISS:          0
cpu0_L1I PREFETCH REQUESTED:          0 ISSUED:          0 USEFUL:          0 USELESS:          0
cpu0_L1I AVERAGE MISS LATENCY: -nan cycles
cpu0_L2C TOTAL        ACCESS:     854485 HIT:     602421 MISS:     252064
cpu0_L2C LOAD         ACCESS:     188183 HIT:     150550 MISS:      37633
cpu0_L2C RFO          ACCESS:      75032 HIT:       8024 MISS:      67008
cpu0_L2C PREFETCH     ACCESS:     386500 HIT:     250298 MISS:     136202
cpu0_L2C WRITE        ACCESS:      77895 HIT:      77804 MISS:         91
cpu0_L2C TRANSLATION  ACCESS:     126875 HIT:     115745 MISS:      11130
cpu0_L2C PREFETCH REQUESTED:     281993 ISSUED:     281758 USEFUL:      67580 USELESS:        313
cpu0_L2C AVERAGE MISS LATENCY: 976.2 cycles
cpu0_STLB TOTAL        ACCESS:     398522 HIT:     270517 MISS:     128005
cpu0_STLB LOAD         ACCESS:     398522 HIT:     270517 MISS:     128005
cpu0_STLB RFO          ACCESS:          0 HIT:          0 MISS:          0
cpu0_STLB PREFETCH     ACCESS:          0 HIT:          0 MISS:          0
cpu0_STLB WRITE        ACCESS:          0 HIT:          0 MISS:          0
cpu0_STLB TRANSLATION  ACCESS:          0 HIT:          0 MISS:          0
cpu0_STLB PREFETCH REQUESTED:          0 ISSUED:          0 USEFUL:          0 USELESS:          0
cpu0_STLB AVERAGE MISS LATENCY: 151.6 cycles

DRAM Statistics

Channel 0 RQ ROW_BUFFER_HIT:      35214
  ROW_BUFFER_MISS:     202645
 AVG DBUS CONGESTED CYCLE: 3.939
WQ ROW_BUFFER_HIT: Channel 0 
  ROW_BUFFER_MISS:       1444
  FULL:      63714
