WARNING: physical memory size is smaller than virtual memory size.

*** ChampSim Multicore Out-of-Order Simulator ***
Warmup Instructions: 25000000
Simulation Instructions: 25000000
Number of CPUs: 1
Page size: 4096

Off-chip DRAM Size: 4 GiB Channels: 1 Width: 64-bit Data Race: 800 MT/s
Heartbeat CPU 0 instructions: 10000001 cycles: 2514265 heartbeat IPC: 3.977 cumulative IPC: 3.977 (Simulation time: 00 hr 00 min 46 sec)
Heartbeat CPU 0 instructions: 20000002 cycles: 5070929 heartbeat IPC: 3.911 cumulative IPC: 3.944 (Simulation time: 00 hr 01 min 35 sec)
Warmup finished CPU 0 instructions: 25000003 cycles: 6387190 cumulative IPC: 3.914 (Simulation time: 00 hr 02 min 00 sec)
Warmup complete CPU 0 instructions: 25000003 cycles: 6387190 cumulative IPC: 3.914 (Simulation time: 00 hr 02 min 00 sec)
Heartbeat CPU 0 instructions: 30000002 cycles: 9882509 heartbeat IPC: 2.078 cumulative IPC: 1.43 (Simulation time: 00 hr 02 min 46 sec)
Heartbeat CPU 0 instructions: 40000002 cycles: 20991997 heartbeat IPC: 0.9001 cumulative IPC: 1.027 (Simulation time: 00 hr 04 min 52 sec)
Heartbeat CPU 0 instructions: 50000000 cycles: 31896818 heartbeat IPC: 0.917 cumulative IPC: 0.98 (Simulation time: 00 hr 06 min 58 sec)
Simulation finished CPU 0 instructions: 25000001 cycles: 25509630 cumulative IPC: 0.98 (Simulation time: 00 hr 06 min 58 sec)
Simulation complete CPU 0 instructions: 25000001 cycles: 25509630 cumulative IPC: 0.98 (Simulation time: 00 hr 06 min 58 sec)

ChampSim completed all CPUs

=== Simulation ===
CPU 0 runs ./traces/cactusADM_734B.trace.xz
Region of Interest Statistics

CPU 0 cumulative IPC: 0.98 instructions: 25000001 cycles: 25509630
CPU 0 Branch Prediction Accuracy: 98.22% MPKI: 0.03732 Average ROB Occupancy at Mispredict: 276.1
Branch type MPKI
BRANCH_DIRECT_JUMP: 0
BRANCH_INDIRECT: 0
BRANCH_CONDITIONAL: 0.0373
BRANCH_DIRECT_CALL: 0
BRANCH_INDIRECT_CALL: 0
BRANCH_RETURN: 0

LLC TOTAL        ACCESS:     314713 HIT:      72860 MISS:     241853
LLC LOAD         ACCESS:      35039 HIT:       2333 MISS:      32706
LLC RFO          ACCESS:      66998 HIT:          9 MISS:      66989
LLC PREFETCH     ACCESS:     134792 HIT:       4154 MISS:     130638
LLC WRITE        ACCESS:      66211 HIT:      66140 MISS:         71
LLC TRANSLATION  ACCESS:      11673 HIT:        224 MISS:      11449
LLC PREFETCH REQUESTED:          0 ISSUED:          0 USEFUL:          0 USELESS:          0
LLC AVERAGE MISS LATENCY: 1041 cycles
cpu0_DTLB TOTAL        ACCESS:    5752726 HIT:    5238940 MISS:     513786
cpu0_DTLB LOAD         ACCESS:    5752726 HIT:    5238940 MISS:     513786
cpu0_DTLB RFO          ACCESS:          0 HIT:          0 MISS:          0
cpu0_DTLB PREFETCH     ACCESS:          0 HIT:          0 MISS:          0
cpu0_DTLB WRITE        ACCESS:          0 HIT:          0 MISS:          0
cpu0_DTLB TRANSLATION  ACCESS:          0 HIT:          0 MISS:          0
cpu0_DTLB PREFETCH REQUESTED:          0 ISSUED:          0 USEFUL:          0 USELESS:          0
cpu0_DTLB AVERAGE MISS LATENCY: 36.8 cycles
cpu0_ITLB TOTAL        ACCESS:    3540198 HIT:    3540198 MISS:          0
cpu0_ITLB LOAD         ACCESS:    3540198 HIT:    3540198 MISS:          0
cpu0_ITLB RFO          ACCESS:          0 HIT:          0 MISS:          0
cpu0_ITLB PREFETCH     ACCESS:          0 HIT:          0 MISS:          0
cpu0_ITLB WRITE        ACCESS:          0 HIT:          0 MISS:          0
cpu0_ITLB TRANSLATION  ACCESS:          0 HIT:          0 MISS:          0
cpu0_ITLB PREFETCH REQUESTED:          0 ISSUED:          0 USEFUL:          0 USELESS:          0
cpu0_ITLB AVERAGE MISS LATENCY: -nan cycles
cpu0_L1D TOTAL        ACCESS:   10016210 HIT:    9175007 MISS:     841203
cpu0_L1D LOAD         ACCESS:    5856779 HIT:    5629389 MISS:     227390
cpu0_L1D RFO          ACCESS:          0 HIT:          0 MISS:          0
cpu0_L1D PREFETCH     ACCESS:     997972 HIT:     846521 MISS:     151451
cpu0_L1D WRITE        ACCESS:    2915428 HIT:    2583926 MISS:     331502
cpu0_L1D TRANSLATION  ACCESS:     246031 HIT:     115171 MISS:     130860
cpu0_L1D PREFETCH REQUESTED:    6465342 ISSUED:     997975 USEFUL:     104744 USELESS:       4238
cpu0_L1D AVERAGE MISS LATENCY: 196.9 cycles
cpu0_L1I TOTAL        ACCESS:    4645486 HIT:    4645486 MISS:          0
cpu0_L1I LOAD         ACCESS:    4645486 HIT:    4645486 MISS:          0
cpu0_L1I RFO          ACCESS:          0 HIT:          0 MISS:          0
cpu0_L1I PREFETCH     ACCESS:          0 HIT:          0 MISS:          0
cpu0_L1I WRITE        ACCESS:          0 HIT:          0 MISS:          0
cpu0_L1I TRANSLATION  ACCESS:          0 HIT:          0 MISS:          0
cpu0_L1I PREFETCH REQUESTED:          0 ISSUED:          0 USEFUL:          0 USELESS:          0
cpu0_L1I AVERAGE MISS LATENCY: -nan cycles
cpu0_L2C TOTAL        ACCESS:     835219 HIT:     583934 MISS:     251285
cpu0_L2C LOAD         ACCESS:     186764 HIT:     151184 MISS:      35580
cpu0_L2C RFO          ACCESS:      67957 HIT:        959 MISS:      66998
cpu0_L2C PREFETCH     ACCESS:     379705 HIT:     242783 MISS:     136922
cpu0_L2C WRITE        ACCESS:      69996 HIT:      69884 MISS:        112
cpu0_L2C TRANSLATION  ACCESS:     130797 HIT:     119124 MISS:      11673
cpu0_L2C PREFETCH REQUESTED:     270964 ISSUED:     270725 USEFUL:      63706 USELESS:        329
cpu0_L2C AVERAGE MISS LATENCY: 980 cycles
cpu0_STLB TOTAL        ACCESS:     391092 HIT:     257962 MISS:     133130
cpu0_STLB LOAD         ACCESS:     391092 HIT:     257962 MISS:     133130
cpu0_STLB RFO          ACCESS:          0 HIT:          0 MISS:          0
cpu0_STLB PREFETCH     ACCESS:          0 HIT:          0 MISS:          0
cpu0_STLB WRITE        ACCESS:          0 HIT:          0 MISS:          0
cpu0_STLB TRANSLATION  ACCESS:          0 HIT:          0 MISS:          0
cpu0_STLB PREFETCH REQUESTED:          0 ISSUED:          0 USEFUL:          0 USELESS:          0
cpu0_STLB AVERAGE MISS LATENCY: 161.2 cycles

DRAM Statistics

Channel 0 RQ ROW_BUFFER_HIT:      33214
  ROW_BUFFER_MISS:     205240
 AVG DBUS CONGESTED CYCLE: 3.939
WQ ROW_BUFFER_HIT: Channel 0 
  ROW_BUFFER_MISS:       1338
  FULL:      64405
