WARNING: physical memory size is smaller than virtual memory size.

*** ChampSim Multicore Out-of-Order Simulator ***
Warmup Instructions: 25000000
Simulation Instructions: 25000000
Number of CPUs: 1
Page size: 4096

Off-chip DRAM Size: 4 GiB Channels: 1 Width: 64-bit Data Race: 800 MT/s
Heartbeat CPU 0 instructions: 10000000 cycles: 2764470 heartbeat IPC: 3.617 cumulative IPC: 3.617 (Simulation time: 00 hr 00 min 47 sec)
Heartbeat CPU 0 instructions: 20000003 cycles: 5345493 heartbeat IPC: 3.874 cumulative IPC: 3.741 (Simulation time: 00 hr 01 min 34 sec)
Warmup finished CPU 0 instructions: 25000003 cycles: 6778576 cumulative IPC: 3.688 (Simulation time: 00 hr 01 min 58 sec)
Warmup complete CPU 0 instructions: 25000003 cycles: 6778576 cumulative IPC: 3.688 (Simulation time: 00 hr 01 min 58 sec)
Heartbeat CPU 0 instructions: 30000003 cycles: 27407636 heartbeat IPC: 0.4533 cumulative IPC: 0.2424 (Simulation time: 00 hr 04 min 29 sec)
Heartbeat CPU 0 instructions: 40000002 cycles: 62857880 heartbeat IPC: 0.2821 cumulative IPC: 0.2675 (Simulation time: 00 hr 09 min 01 sec)
Heartbeat CPU 0 instructions: 50000000 cycles: 75805402 heartbeat IPC: 0.7723 cumulative IPC: 0.3622 (Simulation time: 00 hr 10 min 49 sec)
Simulation finished CPU 0 instructions: 25000000 cycles: 69026839 cumulative IPC: 0.3622 (Simulation time: 00 hr 10 min 49 sec)
Simulation complete CPU 0 instructions: 25000000 cycles: 69026839 cumulative IPC: 0.3622 (Simulation time: 00 hr 10 min 49 sec)

ChampSim completed all CPUs

=== Simulation ===
CPU 0 runs ./traces/gcc_13B.trace.xz
Region of Interest Statistics

CPU 0 cumulative IPC: 0.3622 instructions: 25000000 cycles: 69026839
CPU 0 Branch Prediction Accuracy: 87.06% MPKI: 28.41 Average ROB Occupancy at Mispredict: 24.6
Branch type MPKI
BRANCH_DIRECT_JUMP: 0.00096
BRANCH_INDIRECT: 0
BRANCH_CONDITIONAL: 27.4
BRANCH_DIRECT_CALL: 0.00084
BRANCH_INDIRECT_CALL: 0.002
BRANCH_RETURN: 1

LLC TOTAL        ACCESS:     910178 HIT:     257353 MISS:     652825
LLC LOAD         ACCESS:     276728 HIT:      26864 MISS:     249864
LLC RFO          ACCESS:      76832 HIT:       9807 MISS:      67025
LLC PREFETCH     ACCESS:     344239 HIT:      13147 MISS:     331092
LLC WRITE        ACCESS:     205020 HIT:     205005 MISS:         15
LLC TRANSLATION  ACCESS:       7359 HIT:       2530 MISS:       4829
LLC PREFETCH REQUESTED:          0 ISSUED:          0 USEFUL:          0 USELESS:          0
LLC AVERAGE MISS LATENCY: 796.5 cycles
cpu0_DTLB TOTAL        ACCESS:    6728769 HIT:    6649206 MISS:      79563
cpu0_DTLB LOAD         ACCESS:    6728769 HIT:    6649206 MISS:      79563
cpu0_DTLB RFO          ACCESS:          0 HIT:          0 MISS:          0
cpu0_DTLB PREFETCH     ACCESS:          0 HIT:          0 MISS:          0
cpu0_DTLB WRITE        ACCESS:          0 HIT:          0 MISS:          0
cpu0_DTLB TRANSLATION  ACCESS:          0 HIT:          0 MISS:          0
cpu0_DTLB PREFETCH REQUESTED:          0 ISSUED:          0 USEFUL:          0 USELESS:          0
cpu0_DTLB AVERAGE MISS LATENCY: 103.8 cycles
cpu0_ITLB TOTAL        ACCESS:        427 HIT:        412 MISS:         15
cpu0_ITLB LOAD         ACCESS:        427 HIT:        412 MISS:         15
cpu0_ITLB RFO          ACCESS:          0 HIT:          0 MISS:          0
cpu0_ITLB PREFETCH     ACCESS:          0 HIT:          0 MISS:          0
cpu0_ITLB WRITE        ACCESS:          0 HIT:          0 MISS:          0
cpu0_ITLB TRANSLATION  ACCESS:          0 HIT:          0 MISS:          0
cpu0_ITLB PREFETCH REQUESTED:          0 ISSUED:          0 USEFUL:          0 USELESS:          0
cpu0_ITLB AVERAGE MISS LATENCY: 569.3 cycles
cpu0_L1D TOTAL        ACCESS:   13060422 HIT:   10624931 MISS:    2435491
cpu0_L1D LOAD         ACCESS:    5264507 HIT:    4065997 MISS:    1198510
cpu0_L1D RFO          ACCESS:          0 HIT:          0 MISS:          0
cpu0_L1D PREFETCH     ACCESS:    4183501 HIT:    3443207 MISS:     740294
cpu0_L1D WRITE        ACCESS:    3590511 HIT:    3109030 MISS:     481481
cpu0_L1D TRANSLATION  ACCESS:      21903 HIT:       6697 MISS:      15206
cpu0_L1D PREFETCH REQUESTED:   13383487 ISSUED:    4183500 USEFUL:     115714 USELESS:     122124
cpu0_L1D AVERAGE MISS LATENCY: 164.3 cycles
cpu0_L1I TOTAL        ACCESS:        494 HIT:        424 MISS:         70
cpu0_L1I LOAD         ACCESS:        494 HIT:        424 MISS:         70
cpu0_L1I RFO          ACCESS:          0 HIT:          0 MISS:          0
cpu0_L1I PREFETCH     ACCESS:          0 HIT:          0 MISS:          0
cpu0_L1I WRITE        ACCESS:          0 HIT:          0 MISS:          0
cpu0_L1I TRANSLATION  ACCESS:          0 HIT:          0 MISS:          0
cpu0_L1I PREFETCH REQUESTED:          0 ISSUED:          0 USEFUL:          0 USELESS:          0
cpu0_L1I AVERAGE MISS LATENCY: 290.6 cycles
cpu0_L2C TOTAL        ACCESS:    1091337 HIT:     296103 MISS:     795234
cpu0_L2C LOAD         ACCESS:     339371 HIT:      39569 MISS:     299802
cpu0_L2C RFO          ACCESS:      82086 HIT:       3478 MISS:      78608
cpu0_L2C PREFETCH     ACCESS:     448485 HIT:      39043 MISS:     409442
cpu0_L2C WRITE        ACCESS:     206214 HIT:     206191 MISS:         23
cpu0_L2C TRANSLATION  ACCESS:      15181 HIT:       7822 MISS:       7359
cpu0_L2C PREFETCH REQUESTED:     211126 ISSUED:     210639 USEFUL:      66930 USELESS:      27850
cpu0_L2C AVERAGE MISS LATENCY: 600.7 cycles
cpu0_STLB TOTAL        ACCESS:      30390 HIT:       8592 MISS:      21798
cpu0_STLB LOAD         ACCESS:      30390 HIT:       8592 MISS:      21798
cpu0_STLB RFO          ACCESS:          0 HIT:          0 MISS:          0
cpu0_STLB PREFETCH     ACCESS:          0 HIT:          0 MISS:          0
cpu0_STLB WRITE        ACCESS:          0 HIT:          0 MISS:          0
cpu0_STLB TRANSLATION  ACCESS:          0 HIT:          0 MISS:          0
cpu0_STLB PREFETCH REQUESTED:          0 ISSUED:          0 USEFUL:          0 USELESS:          0
cpu0_STLB AVERAGE MISS LATENCY: 482.1 cycles

DRAM Statistics

Channel 0 RQ ROW_BUFFER_HIT:     249171
  ROW_BUFFER_MISS:     382819
 AVG DBUS CONGESTED CYCLE: 3.907
WQ ROW_BUFFER_HIT: Channel 0 
  ROW_BUFFER_MISS:      16997
  FULL:     186299
