WARNING: physical memory size is smaller than virtual memory size.

*** ChampSim Multicore Out-of-Order Simulator ***
Warmup Instructions: 25000000
Simulation Instructions: 25000000
Number of CPUs: 1
Page size: 4096

Off-chip DRAM Size: 4 GiB Channels: 1 Width: 64-bit Data Race: 800 MT/s
Heartbeat CPU 0 instructions: 10000002 cycles: 2500121 heartbeat IPC: 4 cumulative IPC: 4 (Simulation time: 00 hr 00 min 46 sec)
Heartbeat CPU 0 instructions: 20000002 cycles: 5000121 heartbeat IPC: 4 cumulative IPC: 4 (Simulation time: 00 hr 01 min 34 sec)
Warmup finished CPU 0 instructions: 25000002 cycles: 6250122 cumulative IPC: 4 (Simulation time: 00 hr 01 min 57 sec)
Warmup complete CPU 0 instructions: 25000002 cycles: 6250122 cumulative IPC: 4 (Simulation time: 00 hr 01 min 57 sec)
Heartbeat CPU 0 instructions: 30000001 cycles: 28666888 heartbeat IPC: 0.4225 cumulative IPC: 0.223 (Simulation time: 00 hr 05 min 29 sec)
Heartbeat CPU 0 instructions: 40000000 cycles: 73659926 heartbeat IPC: 0.2223 cumulative IPC: 0.2225 (Simulation time: 00 hr 12 min 47 sec)
Heartbeat CPU 0 instructions: 50000000 cycles: 118610941 heartbeat IPC: 0.2225 cumulative IPC: 0.2225 (Simulation time: 00 hr 20 min 14 sec)
Simulation finished CPU 0 instructions: 25000002 cycles: 112360821 cumulative IPC: 0.2225 (Simulation time: 00 hr 20 min 14 sec)
Simulation complete CPU 0 instructions: 25000002 cycles: 112360821 cumulative IPC: 0.2225 (Simulation time: 00 hr 20 min 14 sec)

ChampSim completed all CPUs

=== Simulation ===
CPU 0 runs ./traces/GemsFDTD_712B.trace.xz
Region of Interest Statistics

CPU 0 cumulative IPC: 0.2225 instructions: 25000002 cycles: 112360821
CPU 0 Branch Prediction Accuracy: 97.29% MPKI: 0.5323 Average ROB Occupancy at Mispredict: 309.6
Branch type MPKI
BRANCH_DIRECT_JUMP: 0
BRANCH_INDIRECT: 0
BRANCH_CONDITIONAL: 0.532
BRANCH_DIRECT_CALL: 0
BRANCH_INDIRECT_CALL: 0
BRANCH_RETURN: 0

LLC TOTAL        ACCESS:    1380655 HIT:     376075 MISS:    1004580
LLC LOAD         ACCESS:     328334 HIT:       7378 MISS:     320956
LLC RFO          ACCESS:          0 HIT:          0 MISS:          0
LLC PREFETCH     ACCESS:     692426 HIT:       9182 MISS:     683244
LLC WRITE        ACCESS:     358767 HIT:     358720 MISS:         47
LLC TRANSLATION  ACCESS:       1128 HIT:        795 MISS:        333
LLC PREFETCH REQUESTED:          0 ISSUED:          0 USEFUL:          0 USELESS:          0
LLC AVERAGE MISS LATENCY: 1669 cycles
cpu0_DTLB TOTAL        ACCESS:    7069440 HIT:    7022375 MISS:      47065
cpu0_DTLB LOAD         ACCESS:    7069440 HIT:    7022375 MISS:      47065
cpu0_DTLB RFO          ACCESS:          0 HIT:          0 MISS:          0
cpu0_DTLB PREFETCH     ACCESS:          0 HIT:          0 MISS:          0
cpu0_DTLB WRITE        ACCESS:          0 HIT:          0 MISS:          0
cpu0_DTLB TRANSLATION  ACCESS:          0 HIT:          0 MISS:          0
cpu0_DTLB PREFETCH REQUESTED:          0 ISSUED:          0 USEFUL:          0 USELESS:          0
cpu0_DTLB AVERAGE MISS LATENCY: 53.85 cycles
cpu0_ITLB TOTAL        ACCESS:          0 HIT:          0 MISS:          0
cpu0_ITLB LOAD         ACCESS:          0 HIT:          0 MISS:          0
cpu0_ITLB RFO          ACCESS:          0 HIT:          0 MISS:          0
cpu0_ITLB PREFETCH     ACCESS:          0 HIT:          0 MISS:          0
cpu0_ITLB WRITE        ACCESS:          0 HIT:          0 MISS:          0
cpu0_ITLB TRANSLATION  ACCESS:          0 HIT:          0 MISS:          0
cpu0_ITLB PREFETCH REQUESTED:          0 ISSUED:          0 USEFUL:          0 USELESS:          0
cpu0_ITLB AVERAGE MISS LATENCY: -nan cycles
cpu0_L1D TOTAL        ACCESS:   11504585 HIT:    6001998 MISS:    5502587
cpu0_L1D LOAD         ACCESS:    6493035 HIT:    2804535 MISS:    3688500
cpu0_L1D RFO          ACCESS:          0 HIT:          0 MISS:          0
cpu0_L1D PREFETCH     ACCESS:    2610954 HIT:     809125 MISS:    1801829
cpu0_L1D WRITE        ACCESS:    2388254 HIT:    2388245 MISS:          9
cpu0_L1D TRANSLATION  ACCESS:      12342 HIT:         93 MISS:      12249
cpu0_L1D PREFETCH REQUESTED:   15856044 ISSUED:    2610954 USEFUL:     610607 USELESS:      40742
cpu0_L1D AVERAGE MISS LATENCY: 150.9 cycles
cpu0_L1I TOTAL        ACCESS:          0 HIT:          0 MISS:          0
cpu0_L1I LOAD         ACCESS:          0 HIT:          0 MISS:          0
cpu0_L1I RFO          ACCESS:          0 HIT:          0 MISS:          0
cpu0_L1I PREFETCH     ACCESS:          0 HIT:          0 MISS:          0
cpu0_L1I WRITE        ACCESS:          0 HIT:          0 MISS:          0
cpu0_L1I TRANSLATION  ACCESS:          0 HIT:          0 MISS:          0
cpu0_L1I PREFETCH REQUESTED:          0 ISSUED:          0 USEFUL:          0 USELESS:          0
cpu0_L1I AVERAGE MISS LATENCY: -nan cycles
cpu0_L2C TOTAL        ACCESS:    1473354 HIT:     428237 MISS:    1045117
cpu0_L2C LOAD         ACCESS:     350851 HIT:      18552 MISS:     332299
cpu0_L2C RFO          ACCESS:          4 HIT:          4 MISS:          0
cpu0_L2C PREFETCH     ACCESS:     750241 HIT:      38627 MISS:     711614
cpu0_L2C WRITE        ACCESS:     360009 HIT:     359933 MISS:         76
cpu0_L2C TRANSLATION  ACCESS:      12249 HIT:      11121 MISS:       1128
cpu0_L2C PREFETCH REQUESTED:      98891 ISSUED:      98891 USEFUL:      47728 USELESS:      10417
cpu0_L2C AVERAGE MISS LATENCY: 1577 cycles
cpu0_STLB TOTAL        ACCESS:      16424 HIT:       4111 MISS:      12313
cpu0_STLB LOAD         ACCESS:      16424 HIT:       4111 MISS:      12313
cpu0_STLB RFO          ACCESS:          0 HIT:          0 MISS:          0
cpu0_STLB PREFETCH     ACCESS:          0 HIT:          0 MISS:          0
cpu0_STLB WRITE        ACCESS:          0 HIT:          0 MISS:          0
cpu0_STLB TRANSLATION  ACCESS:          0 HIT:          0 MISS:          0
cpu0_STLB PREFETCH REQUESTED:          0 ISSUED:          0 USEFUL:          0 USELESS:          0
cpu0_STLB AVERAGE MISS LATENCY: 332.2 cycles

DRAM Statistics

Channel 0 RQ ROW_BUFFER_HIT:     557991
  ROW_BUFFER_MISS:     434880
 AVG DBUS CONGESTED CYCLE: 3.88
WQ ROW_BUFFER_HIT: Channel 0 
  ROW_BUFFER_MISS:      48785
  FULL:     309780
