WARNING: physical memory size is smaller than virtual memory size.

*** ChampSim Multicore Out-of-Order Simulator ***
Warmup Instructions: 25000000
Simulation Instructions: 25000000
Number of CPUs: 1
Page size: 4096

Off-chip DRAM Size: 4 GiB Channels: 1 Width: 64-bit Data Race: 800 MT/s
Heartbeat CPU 0 instructions: 10000003 cycles: 2500113 heartbeat IPC: 4 cumulative IPC: 4 (Simulation time: 00 hr 00 min 45 sec)
Heartbeat CPU 0 instructions: 20000000 cycles: 5001250 heartbeat IPC: 3.998 cumulative IPC: 3.999 (Simulation time: 00 hr 01 min 31 sec)
Warmup finished CPU 0 instructions: 25000002 cycles: 6251541 cumulative IPC: 3.999 (Simulation time: 00 hr 01 min 53 sec)
Warmup complete CPU 0 instructions: 25000002 cycles: 6251541 cumulative IPC: 3.999 (Simulation time: 00 hr 01 min 53 sec)
Heartbeat CPU 0 instructions: 30000002 cycles: 8826396 heartbeat IPC: 2.614 cumulative IPC: 1.942 (Simulation time: 00 hr 02 min 30 sec)
Heartbeat CPU 0 instructions: 40000003 cycles: 15372519 heartbeat IPC: 1.528 cumulative IPC: 1.645 (Simulation time: 00 hr 03 min 56 sec)
Heartbeat CPU 0 instructions: 50000001 cycles: 22143425 heartbeat IPC: 1.477 cumulative IPC: 1.573 (Simulation time: 00 hr 05 min 27 sec)
Simulation finished CPU 0 instructions: 25000003 cycles: 15891886 cumulative IPC: 1.573 (Simulation time: 00 hr 05 min 27 sec)
Simulation complete CPU 0 instructions: 25000003 cycles: 15891886 cumulative IPC: 1.573 (Simulation time: 00 hr 05 min 27 sec)

ChampSim completed all CPUs

=== Simulation ===
CPU 0 runs ./traces/hmmer_397B.trace.xz
Region of Interest Statistics

CPU 0 cumulative IPC: 1.573 instructions: 25000003 cycles: 15891886
CPU 0 Branch Prediction Accuracy: 99.17% MPKI: 0.3152 Average ROB Occupancy at Mispredict: 232.6
Branch type MPKI
BRANCH_DIRECT_JUMP: 8e-05
BRANCH_INDIRECT: 0.0002
BRANCH_CONDITIONAL: 0.315
BRANCH_DIRECT_CALL: 0
BRANCH_INDIRECT_CALL: 0
BRANCH_RETURN: 0.00012

LLC TOTAL        ACCESS:     157772 HIT:      85375 MISS:      72397
LLC LOAD         ACCESS:       1838 HIT:       1277 MISS:        561
LLC RFO          ACCESS:      75234 HIT:       6316 MISS:      68918
LLC PREFETCH     ACCESS:       7269 HIT:       4361 MISS:       2908
LLC WRITE        ACCESS:      73422 HIT:      73417 MISS:          5
LLC TRANSLATION  ACCESS:          9 HIT:          4 MISS:          5
LLC PREFETCH REQUESTED:          0 ISSUED:          0 USEFUL:          0 USELESS:          0
LLC AVERAGE MISS LATENCY: 2848 cycles
cpu0_DTLB TOTAL        ACCESS:    5406423 HIT:    5402556 MISS:       3867
cpu0_DTLB LOAD         ACCESS:    5406423 HIT:    5402556 MISS:       3867
cpu0_DTLB RFO          ACCESS:          0 HIT:          0 MISS:          0
cpu0_DTLB PREFETCH     ACCESS:          0 HIT:          0 MISS:          0
cpu0_DTLB WRITE        ACCESS:          0 HIT:          0 MISS:          0
cpu0_DTLB TRANSLATION  ACCESS:          0 HIT:          0 MISS:          0
cpu0_DTLB PREFETCH REQUESTED:          0 ISSUED:          0 USEFUL:          0 USELESS:          0
cpu0_DTLB AVERAGE MISS LATENCY: 13.96 cycles
cpu0_ITLB TOTAL        ACCESS:        659 HIT:        645 MISS:         14
cpu0_ITLB LOAD         ACCESS:        659 HIT:        645 MISS:         14
cpu0_ITLB RFO          ACCESS:          0 HIT:          0 MISS:          0
cpu0_ITLB PREFETCH     ACCESS:          0 HIT:          0 MISS:          0
cpu0_ITLB WRITE        ACCESS:          0 HIT:          0 MISS:          0
cpu0_ITLB TRANSLATION  ACCESS:          0 HIT:          0 MISS:          0
cpu0_ITLB PREFETCH REQUESTED:          0 ISSUED:          0 USEFUL:          0 USELESS:          0
cpu0_ITLB AVERAGE MISS LATENCY: 1.214 cycles
cpu0_L1D TOTAL        ACCESS:    7864406 HIT:    4782891 MISS:    3081515
cpu0_L1D LOAD         ACCESS:    4154567 HIT:    4079134 MISS:      75433
cpu0_L1D RFO          ACCESS:          0 HIT:          0 MISS:          0
cpu0_L1D PREFETCH     ACCESS:     339513 HIT:     302940 MISS:      36573
cpu0_L1D WRITE        ACCESS:    3370071 HIT:     400810 MISS:    2969261
cpu0_L1D TRANSLATION  ACCESS:        255 HIT:          7 MISS:        248
cpu0_L1D PREFETCH REQUESTED:    6096703 ISSUED:     339513 USEFUL:       6129 USELESS:       3005
cpu0_L1D AVERAGE MISS LATENCY: 54.72 cycles
cpu0_L1I TOTAL        ACCESS:        738 HIT:        712 MISS:         26
cpu0_L1I LOAD         ACCESS:        738 HIT:        712 MISS:         26
cpu0_L1I RFO          ACCESS:          0 HIT:          0 MISS:          0
cpu0_L1I PREFETCH     ACCESS:          0 HIT:          0 MISS:          0
cpu0_L1I WRITE        ACCESS:          0 HIT:          0 MISS:          0
cpu0_L1I TRANSLATION  ACCESS:          0 HIT:          0 MISS:          0
cpu0_L1I PREFETCH REQUESTED:          0 ISSUED:          0 USEFUL:          0 USELESS:          0
cpu0_L1I AVERAGE MISS LATENCY: 758.5 cycles
cpu0_L2C TOTAL        ACCESS:     301647 HIT:     216486 MISS:      85161
cpu0_L2C LOAD         ACCESS:      50836 HIT:      48781 MISS:       2055
cpu0_L2C RFO          ACCESS:      75258 HIT:         24 MISS:      75234
cpu0_L2C PREFETCH     ACCESS:     101895 HIT:      94035 MISS:       7860
cpu0_L2C WRITE        ACCESS:      73410 HIT:      73407 MISS:          3
cpu0_L2C TRANSLATION  ACCESS:        248 HIT:        239 MISS:          9
cpu0_L2C PREFETCH REQUESTED:      92764 ISSUED:      92764 USEFUL:       3321 USELESS:        241
cpu0_L2C AVERAGE MISS LATENCY: 2438 cycles
cpu0_STLB TOTAL        ACCESS:       1662 HIT:       1407 MISS:        255
cpu0_STLB LOAD         ACCESS:       1662 HIT:       1407 MISS:        255
cpu0_STLB RFO          ACCESS:          0 HIT:          0 MISS:          0
cpu0_STLB PREFETCH     ACCESS:          0 HIT:          0 MISS:          0
cpu0_STLB WRITE        ACCESS:          0 HIT:          0 MISS:          0
cpu0_STLB TRANSLATION  ACCESS:          0 HIT:          0 MISS:          0
cpu0_STLB PREFETCH REQUESTED:          0 ISSUED:          0 USEFUL:          0 USELESS:          0
cpu0_STLB AVERAGE MISS LATENCY: 281.2 cycles

DRAM Statistics

Channel 0 RQ ROW_BUFFER_HIT:      38697
  ROW_BUFFER_MISS:      33653
 AVG DBUS CONGESTED CYCLE: 3.944
WQ ROW_BUFFER_HIT: Channel 0 
  ROW_BUFFER_MISS:      14623
  FULL:      53698
