WARNING: physical memory size is smaller than virtual memory size.

*** ChampSim Multicore Out-of-Order Simulator ***
Warmup Instructions: 25000000
Simulation Instructions: 25000000
Number of CPUs: 1
Page size: 4096

Off-chip DRAM Size: 4 GiB Channels: 1 Width: 64-bit Data Race: 800 MT/s
Heartbeat CPU 0 instructions: 10000001 cycles: 2507956 heartbeat IPC: 3.987 cumulative IPC: 3.987 (Simulation time: 00 hr 00 min 42 sec)
Heartbeat CPU 0 instructions: 20000000 cycles: 5019726 heartbeat IPC: 3.981 cumulative IPC: 3.984 (Simulation time: 00 hr 01 min 24 sec)
Warmup finished CPU 0 instructions: 25000000 cycles: 6277627 cumulative IPC: 3.982 (Simulation time: 00 hr 01 min 46 sec)
Warmup complete CPU 0 instructions: 25000000 cycles: 6277627 cumulative IPC: 3.982 (Simulation time: 00 hr 01 min 46 sec)
Heartbeat CPU 0 instructions: 30000002 cycles: 28294580 heartbeat IPC: 0.4296 cumulative IPC: 0.2271 (Simulation time: 00 hr 04 min 47 sec)
Heartbeat CPU 0 instructions: 40000002 cycles: 72341923 heartbeat IPC: 0.227 cumulative IPC: 0.2271 (Simulation time: 00 hr 11 min 09 sec)
Heartbeat CPU 0 instructions: 50000002 cycles: 116765180 heartbeat IPC: 0.2251 cumulative IPC: 0.2263 (Simulation time: 00 hr 17 min 39 sec)
Simulation finished CPU 0 instructions: 25000002 cycles: 110487554 cumulative IPC: 0.2263 (Simulation time: 00 hr 17 min 39 sec)
Simulation complete CPU 0 instructions: 25000002 cycles: 110487554 cumulative IPC: 0.2263 (Simulation time: 00 hr 17 min 39 sec)

ChampSim completed all CPUs

=== Simulation ===
CPU 0 runs ./traces/lbm_1004B.trace.xz
Region of Interest Statistics

CPU 0 cumulative IPC: 0.2263 instructions: 25000002 cycles: 110487554
CPU 0 Branch Prediction Accuracy: 99.25% MPKI: 0.08728 Average ROB Occupancy at Mispredict: 257
Branch type MPKI
BRANCH_DIRECT_JUMP: 0
BRANCH_INDIRECT: 0
BRANCH_CONDITIONAL: 0.0873
BRANCH_DIRECT_CALL: 0
BRANCH_INDIRECT_CALL: 0
BRANCH_RETURN: 0

LLC TOTAL        ACCESS:    1300609 HIT:     560527 MISS:     740082
LLC LOAD         ACCESS:      87938 HIT:       1228 MISS:      86710
LLC RFO          ACCESS:     554587 HIT:       2049 MISS:     552538
LLC PREFETCH     ACCESS:     101717 HIT:        942 MISS:     100775
LLC WRITE        ACCESS:     556289 HIT:     556286 MISS:          3
LLC TRANSLATION  ACCESS:         78 HIT:         22 MISS:         56
LLC PREFETCH REQUESTED:          0 ISSUED:          0 USEFUL:          0 USELESS:          0
LLC AVERAGE MISS LATENCY: 2110 cycles
cpu0_DTLB TOTAL        ACCESS:    4055530 HIT:    4041214 MISS:      14316
cpu0_DTLB LOAD         ACCESS:    4055530 HIT:    4041214 MISS:      14316
cpu0_DTLB RFO          ACCESS:          0 HIT:          0 MISS:          0
cpu0_DTLB PREFETCH     ACCESS:          0 HIT:          0 MISS:          0
cpu0_DTLB WRITE        ACCESS:          0 HIT:          0 MISS:          0
cpu0_DTLB TRANSLATION  ACCESS:          0 HIT:          0 MISS:          0
cpu0_DTLB PREFETCH REQUESTED:          0 ISSUED:          0 USEFUL:          0 USELESS:          0
cpu0_DTLB AVERAGE MISS LATENCY: 288.1 cycles
cpu0_ITLB TOTAL        ACCESS:          0 HIT:          0 MISS:          0
cpu0_ITLB LOAD         ACCESS:          0 HIT:          0 MISS:          0
cpu0_ITLB RFO          ACCESS:          0 HIT:          0 MISS:          0
cpu0_ITLB PREFETCH     ACCESS:          0 HIT:          0 MISS:          0
cpu0_ITLB WRITE        ACCESS:          0 HIT:          0 MISS:          0
cpu0_ITLB TRANSLATION  ACCESS:          0 HIT:          0 MISS:          0
cpu0_ITLB PREFETCH REQUESTED:          0 ISSUED:          0 USEFUL:          0 USELESS:          0
cpu0_ITLB AVERAGE MISS LATENCY: -nan cycles
cpu0_L1D TOTAL        ACCESS:    7180977 HIT:    3903798 MISS:    3277179
cpu0_L1D LOAD         ACCESS:    2165750 HIT:    1387212 MISS:     778538
cpu0_L1D RFO          ACCESS:          0 HIT:          0 MISS:          0
cpu0_L1D PREFETCH     ACCESS:    2465136 HIT:    1046881 MISS:    1418255
cpu0_L1D WRITE        ACCESS:    2538526 HIT:    1468707 MISS:    1069819
cpu0_L1D TRANSLATION  ACCESS:      11565 HIT:        998 MISS:      10567
cpu0_L1D PREFETCH REQUESTED:   10222700 ISSUED:    2465139 USEFUL:      72945 USELESS:       1730
cpu0_L1D AVERAGE MISS LATENCY: 397.4 cycles
cpu0_L1I TOTAL        ACCESS:          0 HIT:          0 MISS:          0
cpu0_L1I LOAD         ACCESS:          0 HIT:          0 MISS:          0
cpu0_L1I RFO          ACCESS:          0 HIT:          0 MISS:          0
cpu0_L1I PREFETCH     ACCESS:          0 HIT:          0 MISS:          0
cpu0_L1I WRITE        ACCESS:          0 HIT:          0 MISS:          0
cpu0_L1I TRANSLATION  ACCESS:          0 HIT:          0 MISS:          0
cpu0_L1I PREFETCH REQUESTED:          0 ISSUED:          0 USEFUL:          0 USELESS:          0
cpu0_L1I AVERAGE MISS LATENCY: -nan cycles
cpu0_L2C TOTAL        ACCESS:    2346862 HIT:    1600486 MISS:     746376
cpu0_L2C LOAD         ACCESS:     111836 HIT:      23680 MISS:      88156
cpu0_L2C RFO          ACCESS:    1042958 HIT:     488371 MISS:     554587
cpu0_L2C PREFETCH     ACCESS:     138540 HIT:      34985 MISS:     103555
cpu0_L2C WRITE        ACCESS:    1042961 HIT:    1042961 MISS:          0
cpu0_L2C TRANSLATION  ACCESS:      10567 HIT:      10489 MISS:         78
cpu0_L2C PREFETCH REQUESTED:      63868 ISSUED:      63868 USEFUL:      24673 USELESS:         43
cpu0_L2C AVERAGE MISS LATENCY: 2105 cycles
cpu0_STLB TOTAL        ACCESS:      11554 HIT:          0 MISS:      11554
cpu0_STLB LOAD         ACCESS:      11554 HIT:          0 MISS:      11554
cpu0_STLB RFO          ACCESS:          0 HIT:          0 MISS:          0
cpu0_STLB PREFETCH     ACCESS:          0 HIT:          0 MISS:          0
cpu0_STLB WRITE        ACCESS:          0 HIT:          0 MISS:          0
cpu0_STLB TRANSLATION  ACCESS:          0 HIT:          0 MISS:          0
cpu0_STLB PREFETCH REQUESTED:          0 ISSUED:          0 USEFUL:          0 USELESS:          0
cpu0_STLB AVERAGE MISS LATENCY: 364 cycles

DRAM Statistics

Channel 0 RQ ROW_BUFFER_HIT:      41719
  ROW_BUFFER_MISS:     697399
 AVG DBUS CONGESTED CYCLE: 3.979
WQ ROW_BUFFER_HIT: Channel 0 
  ROW_BUFFER_MISS:      37670
  FULL:     517759
