WARNING: physical memory size is smaller than virtual memory size.

*** ChampSim Multicore Out-of-Order Simulator ***
Warmup Instructions: 25000000
Simulation Instructions: 25000000
Number of CPUs: 1
Page size: 4096

Off-chip DRAM Size: 4 GiB Channels: 1 Width: 64-bit Data Race: 800 MT/s
Heartbeat CPU 0 instructions: 10000002 cycles: 2656877 heartbeat IPC: 3.764 cumulative IPC: 3.764 (Simulation time: 00 hr 00 min 48 sec)
Heartbeat CPU 0 instructions: 20000000 cycles: 5177482 heartbeat IPC: 3.967 cumulative IPC: 3.863 (Simulation time: 00 hr 01 min 35 sec)
Warmup finished CPU 0 instructions: 25000000 cycles: 6427489 cumulative IPC: 3.89 (Simulation time: 00 hr 02 min 01 sec)
Warmup complete CPU 0 instructions: 25000000 cycles: 6427489 cumulative IPC: 3.89 (Simulation time: 00 hr 02 min 01 sec)
Heartbeat CPU 0 instructions: 30000003 cycles: 36336740 heartbeat IPC: 0.3209 cumulative IPC: 0.1672 (Simulation time: 00 hr 06 min 54 sec)
Heartbeat CPU 0 instructions: 40000001 cycles: 45954846 heartbeat IPC: 1.04 cumulative IPC: 0.3795 (Simulation time: 00 hr 08 min 59 sec)
Heartbeat CPU 0 instructions: 50000002 cycles: 55752512 heartbeat IPC: 1.021 cumulative IPC: 0.5068 (Simulation time: 00 hr 11 min 04 sec)
Simulation finished CPU 0 instructions: 25000002 cycles: 49325024 cumulative IPC: 0.5068 (Simulation time: 00 hr 11 min 04 sec)
Simulation complete CPU 0 instructions: 25000002 cycles: 49325024 cumulative IPC: 0.5068 (Simulation time: 00 hr 11 min 04 sec)

ChampSim completed all CPUs

=== Simulation ===
CPU 0 runs ./traces/leslie3d_94B.trace.xz
Region of Interest Statistics

CPU 0 cumulative IPC: 0.5068 instructions: 25000002 cycles: 49325024
CPU 0 Branch Prediction Accuracy: 98.16% MPKI: 0.7514 Average ROB Occupancy at Mispredict: 333.4
Branch type MPKI
BRANCH_DIRECT_JUMP: 0.00032
BRANCH_INDIRECT: 0
BRANCH_CONDITIONAL: 0.751
BRANCH_DIRECT_CALL: 4e-05
BRANCH_INDIRECT_CALL: 0
BRANCH_RETURN: 8e-05

LLC TOTAL        ACCESS:    1059188 HIT:     461703 MISS:     597485
LLC LOAD         ACCESS:     271453 HIT:     107531 MISS:     163922
LLC RFO          ACCESS:      89102 HIT:      33202 MISS:      55900
LLC PREFETCH     ACCESS:     530536 HIT:     154021 MISS:     376515
LLC WRITE        ACCESS:     167177 HIT:     166489 MISS:        688
LLC TRANSLATION  ACCESS:        920 HIT:        460 MISS:        460
LLC PREFETCH REQUESTED:          0 ISSUED:          0 USEFUL:          0 USELESS:          0
LLC AVERAGE MISS LATENCY: 1199 cycles
cpu0_DTLB TOTAL        ACCESS:    7031901 HIT:    6961046 MISS:      70855
cpu0_DTLB LOAD         ACCESS:    7031901 HIT:    6961046 MISS:      70855
cpu0_DTLB RFO          ACCESS:          0 HIT:          0 MISS:          0
cpu0_DTLB PREFETCH     ACCESS:          0 HIT:          0 MISS:          0
cpu0_DTLB WRITE        ACCESS:          0 HIT:          0 MISS:          0
cpu0_DTLB TRANSLATION  ACCESS:          0 HIT:          0 MISS:          0
cpu0_DTLB PREFETCH REQUESTED:          0 ISSUED:          0 USEFUL:          0 USELESS:          0
cpu0_DTLB AVERAGE MISS LATENCY: 26.05 cycles
cpu0_ITLB TOTAL        ACCESS:     174284 HIT:     174271 MISS:         13
cpu0_ITLB LOAD         ACCESS:     174284 HIT:     174271 MISS:         13
cpu0_ITLB RFO          ACCESS:          0 HIT:          0 MISS:          0
cpu0_ITLB PREFETCH     ACCESS:          0 HIT:          0 MISS:          0
cpu0_ITLB WRITE        ACCESS:          0 HIT:          0 MISS:          0
cpu0_ITLB TRANSLATION  ACCESS:          0 HIT:          0 MISS:          0
cpu0_ITLB PREFETCH REQUESTED:          0 ISSUED:          0 USEFUL:          0 USELESS:          0
cpu0_ITLB AVERAGE MISS LATENCY: 156.9 cycles
cpu0_L1D TOTAL        ACCESS:   11551941 HIT:    7878750 MISS:    3673191
cpu0_L1D LOAD         ACCESS:    6236135 HIT:    4493822 MISS:    1742313
cpu0_L1D RFO          ACCESS:          0 HIT:          0 MISS:          0
cpu0_L1D PREFETCH     ACCESS:    2183462 HIT:    1256351 MISS:     927111
cpu0_L1D WRITE        ACCESS:    3124042 HIT:    2127710 MISS:     996332
cpu0_L1D TRANSLATION  ACCESS:       8302 HIT:        867 MISS:       7435
cpu0_L1D PREFETCH REQUESTED:   17976370 ISSUED:    2183463 USEFUL:     365864 USELESS:      38355
cpu0_L1D AVERAGE MISS LATENCY: 105.7 cycles
cpu0_L1I TOTAL        ACCESS:     232342 HIT:     231979 MISS:        363
cpu0_L1I LOAD         ACCESS:     232342 HIT:     231979 MISS:        363
cpu0_L1I RFO          ACCESS:          0 HIT:          0 MISS:          0
cpu0_L1I PREFETCH     ACCESS:          0 HIT:          0 MISS:          0
cpu0_L1I WRITE        ACCESS:          0 HIT:          0 MISS:          0
cpu0_L1I TRANSLATION  ACCESS:          0 HIT:          0 MISS:          0
cpu0_L1I PREFETCH REQUESTED:          0 ISSUED:          0 USEFUL:          0 USELESS:          0
cpu0_L1I AVERAGE MISS LATENCY: 510.6 cycles
cpu0_L2C TOTAL        ACCESS:    2191201 HIT:    1138786 MISS:    1052415
cpu0_L2C LOAD         ACCESS:     573303 HIT:     267984 MISS:     305319
cpu0_L2C RFO          ACCESS:     225229 HIT:     136127 MISS:      89102
cpu0_L2C PREFETCH     ACCESS:    1049404 HIT:     393115 MISS:     656289
cpu0_L2C WRITE        ACCESS:     335869 HIT:     335084 MISS:        785
cpu0_L2C TRANSLATION  ACCESS:       7396 HIT:       6476 MISS:        920
cpu0_L2C PREFETCH REQUESTED:     645170 ISSUED:     645170 USEFUL:      92165 USELESS:      53334
cpu0_L2C AVERAGE MISS LATENCY: 562.9 cycles
cpu0_STLB TOTAL        ACCESS:      30864 HIT:      22587 MISS:       8277
cpu0_STLB LOAD         ACCESS:      30864 HIT:      22587 MISS:       8277
cpu0_STLB RFO          ACCESS:          0 HIT:          0 MISS:          0
cpu0_STLB PREFETCH     ACCESS:          0 HIT:          0 MISS:          0
cpu0_STLB WRITE        ACCESS:          0 HIT:          0 MISS:          0
cpu0_STLB TRANSLATION  ACCESS:          0 HIT:          0 MISS:          0
cpu0_STLB PREFETCH REQUESTED:          0 ISSUED:          0 USEFUL:          0 USELESS:          0
cpu0_STLB AVERAGE MISS LATENCY: 331.7 cycles

DRAM Statistics

Channel 0 RQ ROW_BUFFER_HIT:     191182
  ROW_BUFFER_MISS:     322467
 AVG DBUS CONGESTED CYCLE: 3.937
WQ ROW_BUFFER_HIT: Channel 0 
  ROW_BUFFER_MISS:       8125
  FULL:     104613
