WARNING: physical memory size is smaller than virtual memory size.

*** ChampSim Multicore Out-of-Order Simulator ***
Warmup Instructions: 25000000
Simulation Instructions: 25000000
Number of CPUs: 1
Page size: 4096

Off-chip DRAM Size: 4 GiB Channels: 1 Width: 64-bit Data Race: 800 MT/s
Heartbeat CPU 0 instructions: 10000001 cycles: 2500071 heartbeat IPC: 4 cumulative IPC: 4 (Simulation time: 00 hr 00 min 35 sec)
Heartbeat CPU 0 instructions: 20000001 cycles: 5127947 heartbeat IPC: 3.805 cumulative IPC: 3.9 (Simulation time: 00 hr 01 min 10 sec)
Warmup finished CPU 0 instructions: 25000001 cycles: 6458980 cumulative IPC: 3.871 (Simulation time: 00 hr 01 min 29 sec)
Warmup complete CPU 0 instructions: 25000001 cycles: 6458980 cumulative IPC: 3.871 (Simulation time: 00 hr 01 min 29 sec)
Heartbeat CPU 0 instructions: 30000000 cycles: 17868290 heartbeat IPC: 0.7849 cumulative IPC: 0.4382 (Simulation time: 00 hr 03 min 04 sec)
Heartbeat CPU 0 instructions: 40000000 cycles: 28982838 heartbeat IPC: 0.8997 cumulative IPC: 0.666 (Simulation time: 00 hr 05 min 00 sec)
Heartbeat CPU 0 instructions: 50000003 cycles: 43992146 heartbeat IPC: 0.6663 cumulative IPC: 0.6661 (Simulation time: 00 hr 07 min 15 sec)
Simulation finished CPU 0 instructions: 25000002 cycles: 37533167 cumulative IPC: 0.6661 (Simulation time: 00 hr 07 min 15 sec)
Simulation complete CPU 0 instructions: 25000002 cycles: 37533167 cumulative IPC: 0.6661 (Simulation time: 00 hr 07 min 15 sec)

ChampSim completed all CPUs

=== Simulation ===
CPU 0 runs ./traces/libquantum_1210B.trace.xz
Region of Interest Statistics

CPU 0 cumulative IPC: 0.6661 instructions: 25000002 cycles: 37533167
CPU 0 Branch Prediction Accuracy: 96.18% MPKI: 8.916 Average ROB Occupancy at Mispredict: 2.094
Branch type MPKI
BRANCH_DIRECT_JUMP: 8e-05
BRANCH_INDIRECT: 0
BRANCH_CONDITIONAL: 8.92
BRANCH_DIRECT_CALL: 0.0002
BRANCH_INDIRECT_CALL: 0
BRANCH_RETURN: 0.0002

LLC TOTAL        ACCESS:     872047 HIT:      97636 MISS:     774411
LLC LOAD         ACCESS:        255 HIT:          0 MISS:        255
LLC RFO          ACCESS:          8 HIT:          0 MISS:          8
LLC PREFETCH     ACCESS:     774129 HIT:         11 MISS:     774118
LLC WRITE        ACCESS:      97625 HIT:      97625 MISS:          0
LLC TRANSLATION  ACCESS:         30 HIT:          0 MISS:         30
LLC PREFETCH REQUESTED:          0 ISSUED:          0 USEFUL:          0 USELESS:          0
LLC AVERAGE MISS LATENCY: 486.7 cycles
cpu0_DTLB TOTAL        ACCESS:    3114968 HIT:    3073621 MISS:      41347
cpu0_DTLB LOAD         ACCESS:    3114968 HIT:    3073621 MISS:      41347
cpu0_DTLB RFO          ACCESS:          0 HIT:          0 MISS:          0
cpu0_DTLB PREFETCH     ACCESS:          0 HIT:          0 MISS:          0
cpu0_DTLB WRITE        ACCESS:          0 HIT:          0 MISS:          0
cpu0_DTLB TRANSLATION  ACCESS:          0 HIT:          0 MISS:          0
cpu0_DTLB PREFETCH REQUESTED:          0 ISSUED:          0 USEFUL:          0 USELESS:          0
cpu0_DTLB AVERAGE MISS LATENCY: 2.802 cycles
cpu0_ITLB TOTAL        ACCESS:          7 HIT:          7 MISS:          0
cpu0_ITLB LOAD         ACCESS:          7 HIT:          7 MISS:          0
cpu0_ITLB RFO          ACCESS:          0 HIT:          0 MISS:          0
cpu0_ITLB PREFETCH     ACCESS:          0 HIT:          0 MISS:          0
cpu0_ITLB WRITE        ACCESS:          0 HIT:          0 MISS:          0
cpu0_ITLB TRANSLATION  ACCESS:          0 HIT:          0 MISS:          0
cpu0_ITLB PREFETCH REQUESTED:          0 ISSUED:          0 USEFUL:          0 USELESS:          0
cpu0_ITLB AVERAGE MISS LATENCY: -nan cycles
cpu0_L1D TOTAL        ACCESS:    6040680 HIT:     621848 MISS:    5418832
cpu0_L1D LOAD         ACCESS:    2914394 HIT:     325995 MISS:    2588399
cpu0_L1D RFO          ACCESS:          0 HIT:          0 MISS:          0
cpu0_L1D PREFETCH     ACCESS:    2914244 HIT:      83869 MISS:    2830375
cpu0_L1D WRITE        ACCESS:     200648 HIT:     200620 MISS:         28
cpu0_L1D TRANSLATION  ACCESS:      11394 HIT:      11364 MISS:         30
cpu0_L1D PREFETCH REQUESTED:    2914394 ISSUED:    2914243 USEFUL:     727855 USELESS:         35
cpu0_L1D AVERAGE MISS LATENCY: 49.51 cycles
cpu0_L1I TOTAL        ACCESS:          7 HIT:          3 MISS:          4
cpu0_L1I LOAD         ACCESS:          7 HIT:          3 MISS:          4
cpu0_L1I RFO          ACCESS:          0 HIT:          0 MISS:          0
cpu0_L1I PREFETCH     ACCESS:          0 HIT:          0 MISS:          0
cpu0_L1I WRITE        ACCESS:          0 HIT:          0 MISS:          0
cpu0_L1I TRANSLATION  ACCESS:          0 HIT:          0 MISS:          0
cpu0_L1I PREFETCH REQUESTED:          0 ISSUED:          0 USEFUL:          0 USELESS:          0
cpu0_L1I AVERAGE MISS LATENCY: 243.8 cycles
cpu0_L2C TOTAL        ACCESS:    2940723 HIT:     145803 MISS:    2794920
cpu0_L2C LOAD         ACCESS:        881 HIT:          8 MISS:        873
cpu0_L2C RFO          ACCESS:          8 HIT:          0 MISS:          8
cpu0_L2C PREFETCH     ACCESS:    2842217 HIT:      48208 MISS:    2794009
cpu0_L2C WRITE        ACCESS:      97587 HIT:      97587 MISS:          0
cpu0_L2C TRANSLATION  ACCESS:         30 HIT:          0 MISS:         30
cpu0_L2C PREFETCH REQUESTED:    2114328 ISSUED:    2114328 USEFUL:      98129 USELESS:     616181
cpu0_L2C AVERAGE MISS LATENCY: 139.6 cycles
cpu0_STLB TOTAL        ACCESS:      11394 HIT:          0 MISS:      11394
cpu0_STLB LOAD         ACCESS:      11394 HIT:          0 MISS:      11394
cpu0_STLB RFO          ACCESS:          0 HIT:          0 MISS:          0
cpu0_STLB PREFETCH     ACCESS:          0 HIT:          0 MISS:          0
cpu0_STLB WRITE        ACCESS:          0 HIT:          0 MISS:          0
cpu0_STLB TRANSLATION  ACCESS:          0 HIT:          0 MISS:          0
cpu0_STLB PREFETCH REQUESTED:          0 ISSUED:          0 USEFUL:          0 USELESS:          0
cpu0_STLB AVERAGE MISS LATENCY: 7.273 cycles

DRAM Statistics

Channel 0 RQ ROW_BUFFER_HIT:     643985
  ROW_BUFFER_MISS:      84846
 AVG DBUS CONGESTED CYCLE: 3.973
WQ ROW_BUFFER_HIT: Channel 0 
  ROW_BUFFER_MISS:      31805
  FULL:      66232
