WARNING: physical memory size is smaller than virtual memory size.

*** ChampSim Multicore Out-of-Order Simulator ***
Warmup Instructions: 25000000
Simulation Instructions: 25000000
Number of CPUs: 1
Page size: 4096

Off-chip DRAM Size: 4 GiB Channels: 1 Width: 64-bit Data Race: 800 MT/s
Heartbeat CPU 0 instructions: 10000003 cycles: 2564990 heartbeat IPC: 3.899 cumulative IPC: 3.899 (Simulation time: 00 hr 00 min 55 sec)
Heartbeat CPU 0 instructions: 20000003 cycles: 5099214 heartbeat IPC: 3.946 cumulative IPC: 3.922 (Simulation time: 00 hr 01 min 51 sec)
Warmup finished CPU 0 instructions: 25000002 cycles: 6373842 cumulative IPC: 3.922 (Simulation time: 00 hr 02 min 19 sec)
Warmup complete CPU 0 instructions: 25000002 cycles: 6373842 cumulative IPC: 3.922 (Simulation time: 00 hr 02 min 19 sec)
Heartbeat CPU 0 instructions: 30000000 cycles: 62493555 heartbeat IPC: 0.1742 cumulative IPC: 0.0891 (Simulation time: 00 hr 08 min 27 sec)
Heartbeat CPU 0 instructions: 40000001 cycles: 186030015 heartbeat IPC: 0.08095 cumulative IPC: 0.08349 (Simulation time: 00 hr 21 min 05 sec)
Heartbeat CPU 0 instructions: 50000001 cycles: 307076135 heartbeat IPC: 0.08261 cumulative IPC: 0.08314 (Simulation time: 00 hr 27 min 20 sec)
Simulation finished CPU 0 instructions: 25000003 cycles: 300702295 cumulative IPC: 0.08314 (Simulation time: 00 hr 27 min 20 sec)
Simulation complete CPU 0 instructions: 25000003 cycles: 300702295 cumulative IPC: 0.08314 (Simulation time: 00 hr 27 min 20 sec)

ChampSim completed all CPUs

=== Simulation ===
CPU 0 runs ./traces/mcf_46B.trace.xz
Region of Interest Statistics

CPU 0 cumulative IPC: 0.08314 instructions: 25000003 cycles: 300702295
CPU 0 Branch Prediction Accuracy: 81.68% MPKI: 49.4 Average ROB Occupancy at Mispredict: 16.64
Branch type MPKI
BRANCH_DIRECT_JUMP: 0.752
BRANCH_INDIRECT: 0
BRANCH_CONDITIONAL: 48.6
BRANCH_DIRECT_CALL: 0
BRANCH_INDIRECT_CALL: 0
BRANCH_RETURN: 0

LLC TOTAL        ACCESS:    4296646 HIT:    1656936 MISS:    2639710
LLC LOAD         ACCESS:    1882283 HIT:     742586 MISS:    1139697
LLC RFO          ACCESS:      49875 HIT:      14458 MISS:      35417
LLC PREFETCH     ACCESS:    1592700 HIT:     364576 MISS:    1228124
LLC WRITE        ACCESS:     471014 HIT:     470414 MISS:        600
LLC TRANSLATION  ACCESS:     300774 HIT:      64902 MISS:     235872
LLC PREFETCH REQUESTED:          0 ISSUED:          0 USEFUL:          0 USELESS:          0
LLC AVERAGE MISS LATENCY: 666.4 cycles
cpu0_DTLB TOTAL        ACCESS:    7323072 HIT:    4610319 MISS:    2712753
cpu0_DTLB LOAD         ACCESS:    7323072 HIT:    4610319 MISS:    2712753
cpu0_DTLB RFO          ACCESS:          0 HIT:          0 MISS:          0
cpu0_DTLB PREFETCH     ACCESS:          0 HIT:          0 MISS:          0
cpu0_DTLB WRITE        ACCESS:          0 HIT:          0 MISS:          0
cpu0_DTLB TRANSLATION  ACCESS:          0 HIT:          0 MISS:          0
cpu0_DTLB PREFETCH REQUESTED:          0 ISSUED:          0 USEFUL:          0 USELESS:          0
cpu0_DTLB AVERAGE MISS LATENCY: 56.48 cycles
cpu0_ITLB TOTAL        ACCESS:         17 HIT:         17 MISS:          0
cpu0_ITLB LOAD         ACCESS:         17 HIT:         17 MISS:          0
cpu0_ITLB RFO          ACCESS:          0 HIT:          0 MISS:          0
cpu0_ITLB PREFETCH     ACCESS:          0 HIT:          0 MISS:          0
cpu0_ITLB WRITE        ACCESS:          0 HIT:          0 MISS:          0
cpu0_ITLB TRANSLATION  ACCESS:          0 HIT:          0 MISS:          0
cpu0_ITLB PREFETCH REQUESTED:          0 ISSUED:          0 USEFUL:          0 USELESS:          0
cpu0_ITLB AVERAGE MISS LATENCY: -nan cycles
cpu0_L1D TOTAL        ACCESS:   14293446 HIT:    7130772 MISS:    7162674
cpu0_L1D LOAD         ACCESS:    6904806 HIT:    3442274 MISS:    3462532
cpu0_L1D RFO          ACCESS:          0 HIT:          0 MISS:          0
cpu0_L1D PREFETCH     ACCESS:    5653936 HIT:    2508441 MISS:    3145495
cpu0_L1D WRITE        ACCESS:    1315486 HIT:    1149564 MISS:     165922
cpu0_L1D TRANSLATION  ACCESS:     419218 HIT:      30493 MISS:     388725
cpu0_L1D PREFETCH REQUESTED:   21534266 ISSUED:    5653935 USEFUL:     258476 USELESS:    1584359
cpu0_L1D AVERAGE MISS LATENCY: 255.4 cycles
cpu0_L1I TOTAL        ACCESS:         17 HIT:         17 MISS:          0
cpu0_L1I LOAD         ACCESS:         17 HIT:         17 MISS:          0
cpu0_L1I RFO          ACCESS:          0 HIT:          0 MISS:          0
cpu0_L1I PREFETCH     ACCESS:          0 HIT:          0 MISS:          0
cpu0_L1I WRITE        ACCESS:          0 HIT:          0 MISS:          0
cpu0_L1I TRANSLATION  ACCESS:          0 HIT:          0 MISS:          0
cpu0_L1I PREFETCH REQUESTED:          0 ISSUED:          0 USEFUL:          0 USELESS:          0
cpu0_L1I AVERAGE MISS LATENCY: -nan cycles
cpu0_L2C TOTAL        ACCESS:    5726967 HIT:    1901120 MISS:    3825847
cpu0_L2C LOAD         ACCESS:    2717454 HIT:     835137 MISS:    1882317
cpu0_L2C RFO          ACCESS:     103760 HIT:      53884 MISS:      49876
cpu0_L2C PREFETCH     ACCESS:    1852621 HIT:     259813 MISS:    1592808
cpu0_L2C WRITE        ACCESS:     664609 HIT:     664537 MISS:         72
cpu0_L2C TRANSLATION  ACCESS:     388523 HIT:      87749 MISS:     300774
cpu0_L2C PREFETCH REQUESTED:       9687 ISSUED:       9687 USEFUL:       1070 USELESS:       2080
cpu0_L2C AVERAGE MISS LATENCY: 480.4 cycles
cpu0_STLB TOTAL        ACCESS:    2312762 HIT:    1991903 MISS:     320859
cpu0_STLB LOAD         ACCESS:    2312762 HIT:    1991903 MISS:     320859
cpu0_STLB RFO          ACCESS:          0 HIT:          0 MISS:          0
cpu0_STLB PREFETCH     ACCESS:          0 HIT:          0 MISS:          0
cpu0_STLB WRITE        ACCESS:          0 HIT:          0 MISS:          0
cpu0_STLB TRANSLATION  ACCESS:          0 HIT:          0 MISS:          0
cpu0_STLB PREFETCH REQUESTED:          0 ISSUED:          0 USEFUL:          0 USELESS:          0
cpu0_STLB AVERAGE MISS LATENCY: 422.8 cycles

DRAM Statistics

Channel 0 RQ ROW_BUFFER_HIT:      90350
  ROW_BUFFER_MISS:    2547893
 AVG DBUS CONGESTED CYCLE: 3.952
WQ ROW_BUFFER_HIT: Channel 0 
  ROW_BUFFER_MISS:       5500
  FULL:     405329
