WARNING: physical memory size is smaller than virtual memory size.

*** ChampSim Multicore Out-of-Order Simulator ***
Warmup Instructions: 25000000
Simulation Instructions: 25000000
Number of CPUs: 1
Page size: 4096

Off-chip DRAM Size: 4 GiB Channels: 1 Width: 64-bit Data Race: 800 MT/s
Heartbeat CPU 0 instructions: 10000002 cycles: 2514566 heartbeat IPC: 3.977 cumulative IPC: 3.977 (Simulation time: 00 hr 00 min 56 sec)
Heartbeat CPU 0 instructions: 20000000 cycles: 5021033 heartbeat IPC: 3.99 cumulative IPC: 3.983 (Simulation time: 00 hr 01 min 52 sec)
Warmup finished CPU 0 instructions: 25000001 cycles: 6271165 cumulative IPC: 3.987 (Simulation time: 00 hr 02 min 20 sec)
Warmup complete CPU 0 instructions: 25000001 cycles: 6271165 cumulative IPC: 3.987 (Simulation time: 00 hr 02 min 20 sec)
Heartbeat CPU 0 instructions: 30000000 cycles: 79458704 heartbeat IPC: 0.1343 cumulative IPC: 0.06832 (Simulation time: 00 hr 10 min 05 sec)
Heartbeat CPU 0 instructions: 40000003 cycles: 232046703 heartbeat IPC: 0.06554 cumulative IPC: 0.06644 (Simulation time: 00 hr 24 min 01 sec)
Heartbeat CPU 0 instructions: 50000002 cycles: 375350713 heartbeat IPC: 0.06978 cumulative IPC: 0.06774 (Simulation time: 00 hr 30 min 54 sec)
Simulation finished CPU 0 instructions: 25000001 cycles: 369079549 cumulative IPC: 0.06774 (Simulation time: 00 hr 30 min 54 sec)
Simulation complete CPU 0 instructions: 25000001 cycles: 369079549 cumulative IPC: 0.06774 (Simulation time: 00 hr 30 min 54 sec)

ChampSim completed all CPUs

=== Simulation ===
CPU 0 runs ./traces/mcf_250B.trace.xz
Region of Interest Statistics

CPU 0 cumulative IPC: 0.06774 instructions: 25000001 cycles: 369079549
CPU 0 Branch Prediction Accuracy: 90.47% MPKI: 29.3 Average ROB Occupancy at Mispredict: 18.94
Branch type MPKI
BRANCH_DIRECT_JUMP: 0.0611
BRANCH_INDIRECT: 0
BRANCH_CONDITIONAL: 29.2
BRANCH_DIRECT_CALL: 0
BRANCH_INDIRECT_CALL: 0
BRANCH_RETURN: 0

LLC TOTAL        ACCESS:    6459097 HIT:    3331827 MISS:    3127270
LLC LOAD         ACCESS:    3172978 HIT:    2086821 MISS:    1086157
LLC RFO          ACCESS:       6059 HIT:       1777 MISS:       4282
LLC PREFETCH     ACCESS:    3105168 HIT:    1139542 MISS:    1965626
LLC WRITE        ACCESS:      60120 HIT:      60119 MISS:          1
LLC TRANSLATION  ACCESS:     114772 HIT:      43568 MISS:      71204
LLC PREFETCH REQUESTED:          0 ISSUED:          0 USEFUL:          0 USELESS:          0
LLC AVERAGE MISS LATENCY: 802.3 cycles
cpu0_DTLB TOTAL        ACCESS:    6884368 HIT:     581359 MISS:    6303009
cpu0_DTLB LOAD         ACCESS:    6884368 HIT:     581359 MISS:    6303009
cpu0_DTLB RFO          ACCESS:          0 HIT:          0 MISS:          0
cpu0_DTLB PREFETCH     ACCESS:          0 HIT:          0 MISS:          0
cpu0_DTLB WRITE        ACCESS:          0 HIT:          0 MISS:          0
cpu0_DTLB TRANSLATION  ACCESS:          0 HIT:          0 MISS:          0
cpu0_DTLB PREFETCH REQUESTED:          0 ISSUED:          0 USEFUL:          0 USELESS:          0
cpu0_DTLB AVERAGE MISS LATENCY: 15.06 cycles
cpu0_ITLB TOTAL        ACCESS:          0 HIT:          0 MISS:          0
cpu0_ITLB LOAD         ACCESS:          0 HIT:          0 MISS:          0
cpu0_ITLB RFO          ACCESS:          0 HIT:          0 MISS:          0
cpu0_ITLB PREFETCH     ACCESS:          0 HIT:          0 MISS:          0
cpu0_ITLB WRITE        ACCESS:          0 HIT:          0 MISS:          0
cpu0_ITLB TRANSLATION  ACCESS:          0 HIT:          0 MISS:          0
cpu0_ITLB PREFETCH REQUESTED:          0 ISSUED:          0 USEFUL:          0 USELESS:          0
cpu0_ITLB AVERAGE MISS LATENCY: -nan cycles
cpu0_L1D TOTAL        ACCESS:   14150720 HIT:     590757 MISS:   13559963
cpu0_L1D LOAD         ACCESS:    7329912 HIT:     298079 MISS:    7031833
cpu0_L1D RFO          ACCESS:          0 HIT:          0 MISS:          0
cpu0_L1D PREFETCH     ACCESS:    6594994 HIT:     202006 MISS:    6392988
cpu0_L1D WRITE        ACCESS:      95180 HIT:      87154 MISS:       8026
cpu0_L1D TRANSLATION  ACCESS:     130634 HIT:       3518 MISS:     127116
cpu0_L1D PREFETCH REQUESTED:   14324815 ISSUED:    6594986 USEFUL:      36807 USELESS:    3730087
cpu0_L1D AVERAGE MISS LATENCY: 201.1 cycles
cpu0_L1I TOTAL        ACCESS:          0 HIT:          0 MISS:          0
cpu0_L1I LOAD         ACCESS:          0 HIT:          0 MISS:          0
cpu0_L1I RFO          ACCESS:          0 HIT:          0 MISS:          0
cpu0_L1I PREFETCH     ACCESS:          0 HIT:          0 MISS:          0
cpu0_L1I WRITE        ACCESS:          0 HIT:          0 MISS:          0
cpu0_L1I TRANSLATION  ACCESS:          0 HIT:          0 MISS:          0
cpu0_L1I PREFETCH REQUESTED:          0 ISSUED:          0 USEFUL:          0 USELESS:          0
cpu0_L1I AVERAGE MISS LATENCY: -nan cycles
cpu0_L2C TOTAL        ACCESS:    8800014 HIT:    2400998 MISS:    6399016
cpu0_L2C LOAD         ACCESS:    4836385 HIT:    1663393 MISS:    3172992
cpu0_L2C RFO          ACCESS:       7088 HIT:       1029 MISS:       6059
cpu0_L2C PREFETCH     ACCESS:    3768001 HIT:     662810 MISS:    3105191
cpu0_L2C WRITE        ACCESS:      61552 HIT:      61550 MISS:          2
cpu0_L2C TRANSLATION  ACCESS:     126988 HIT:      12216 MISS:     114772
cpu0_L2C PREFETCH REQUESTED:        949 ISSUED:        949 USEFUL:        228 USELESS:        509
cpu0_L2C AVERAGE MISS LATENCY: 412.6 cycles
cpu0_STLB TOTAL        ACCESS:    4586276 HIT:    4491816 MISS:      94460
cpu0_STLB LOAD         ACCESS:    4586276 HIT:    4491816 MISS:      94460
cpu0_STLB RFO          ACCESS:          0 HIT:          0 MISS:          0
cpu0_STLB PREFETCH     ACCESS:          0 HIT:          0 MISS:          0
cpu0_STLB WRITE        ACCESS:          0 HIT:          0 MISS:          0
cpu0_STLB TRANSLATION  ACCESS:          0 HIT:          0 MISS:          0
cpu0_STLB PREFETCH REQUESTED:          0 ISSUED:          0 USEFUL:          0 USELESS:          0
cpu0_STLB AVERAGE MISS LATENCY: 654.4 cycles

DRAM Statistics

Channel 0 RQ ROW_BUFFER_HIT:      44521
  ROW_BUFFER_MISS:    3082407
 AVG DBUS CONGESTED CYCLE: 3.973
WQ ROW_BUFFER_HIT: Channel 0 
  ROW_BUFFER_MISS:       1439
  FULL:      54380
