WARNING: physical memory size is smaller than virtual memory size.

*** ChampSim Multicore Out-of-Order Simulator ***
Warmup Instructions: 25000000
Simulation Instructions: 25000000
Number of CPUs: 1
Page size: 4096

Off-chip DRAM Size: 4 GiB Channels: 1 Width: 64-bit Data Race: 800 MT/s
Heartbeat CPU 0 instructions: 10000000 cycles: 2780080 heartbeat IPC: 3.597 cumulative IPC: 3.597 (Simulation time: 00 hr 00 min 46 sec)
Heartbeat CPU 0 instructions: 20000000 cycles: 5280080 heartbeat IPC: 4 cumulative IPC: 3.788 (Simulation time: 00 hr 01 min 30 sec)
Warmup finished CPU 0 instructions: 25000000 cycles: 6530081 cumulative IPC: 3.828 (Simulation time: 00 hr 01 min 52 sec)
Warmup complete CPU 0 instructions: 25000000 cycles: 6530081 cumulative IPC: 3.828 (Simulation time: 00 hr 01 min 52 sec)
Heartbeat CPU 0 instructions: 30000000 cycles: 15521935 heartbeat IPC: 0.9764 cumulative IPC: 0.5561 (Simulation time: 00 hr 03 min 24 sec)
Heartbeat CPU 0 instructions: 40000000 cycles: 33452231 heartbeat IPC: 0.5577 cumulative IPC: 0.5572 (Simulation time: 00 hr 06 min 30 sec)
Heartbeat CPU 0 instructions: 50000001 cycles: 51387440 heartbeat IPC: 0.5576 cumulative IPC: 0.5573 (Simulation time: 00 hr 09 min 39 sec)
Simulation finished CPU 0 instructions: 25000001 cycles: 44857360 cumulative IPC: 0.5573 (Simulation time: 00 hr 09 min 39 sec)
Simulation complete CPU 0 instructions: 25000001 cycles: 44857360 cumulative IPC: 0.5573 (Simulation time: 00 hr 09 min 39 sec)

ChampSim completed all CPUs

=== Simulation ===
CPU 0 runs ./traces/milc_409B.trace.xz
Region of Interest Statistics

CPU 0 cumulative IPC: 0.5573 instructions: 25000001 cycles: 44857360
CPU 0 Branch Prediction Accuracy: 100% MPKI: 0.00016 Average ROB Occupancy at Mispredict: 219.8
Branch type MPKI
BRANCH_DIRECT_JUMP: 4e-05
BRANCH_INDIRECT: 0
BRANCH_CONDITIONAL: 0.00012
BRANCH_DIRECT_CALL: 0
BRANCH_INDIRECT_CALL: 0
BRANCH_RETURN: 0

LLC TOTAL        ACCESS:     723469 HIT:     170197 MISS:     553272
LLC LOAD         ACCESS:     162104 HIT:          0 MISS:     162104
LLC RFO          ACCESS:          0 HIT:          0 MISS:          0
LLC PREFETCH     ACCESS:     390991 HIT:          0 MISS:     390991
LLC WRITE        ACCESS:     170197 HIT:     170197 MISS:          0
LLC TRANSLATION  ACCESS:        177 HIT:          0 MISS:        177
LLC PREFETCH REQUESTED:          0 ISSUED:          0 USEFUL:          0 USELESS:          0
LLC AVERAGE MISS LATENCY: 681.1 cycles
cpu0_DTLB TOTAL        ACCESS:    5711982 HIT:    5478771 MISS:     233211
cpu0_DTLB LOAD         ACCESS:    5711982 HIT:    5478771 MISS:     233211
cpu0_DTLB RFO          ACCESS:          0 HIT:          0 MISS:          0
cpu0_DTLB PREFETCH     ACCESS:          0 HIT:          0 MISS:          0
cpu0_DTLB WRITE        ACCESS:          0 HIT:          0 MISS:          0
cpu0_DTLB TRANSLATION  ACCESS:          0 HIT:          0 MISS:          0
cpu0_DTLB PREFETCH REQUESTED:          0 ISSUED:          0 USEFUL:          0 USELESS:          0
cpu0_DTLB AVERAGE MISS LATENCY: 21.64 cycles
cpu0_ITLB TOTAL        ACCESS:          1 HIT:          1 MISS:          0
cpu0_ITLB LOAD         ACCESS:          1 HIT:          1 MISS:          0
cpu0_ITLB RFO          ACCESS:          0 HIT:          0 MISS:          0
cpu0_ITLB PREFETCH     ACCESS:          0 HIT:          0 MISS:          0
cpu0_ITLB WRITE        ACCESS:          0 HIT:          0 MISS:          0
cpu0_ITLB TRANSLATION  ACCESS:          0 HIT:          0 MISS:          0
cpu0_ITLB PREFETCH REQUESTED:          0 ISSUED:          0 USEFUL:          0 USELESS:          0
cpu0_ITLB AVERAGE MISS LATENCY: -nan cycles
cpu0_L1D TOTAL        ACCESS:    8989550 HIT:    7512027 MISS:    1477523
cpu0_L1D LOAD         ACCESS:    1579540 HIT:     994302 MISS:     585238
cpu0_L1D RFO          ACCESS:          0 HIT:          0 MISS:          0
cpu0_L1D PREFETCH     ACCESS:    1578419 HIT:     750233 MISS:     828186
cpu0_L1D WRITE        ACCESS:    5786959 HIT:    5725024 MISS:      61935
cpu0_L1D TRANSLATION  ACCESS:      44632 HIT:      42468 MISS:       2164
cpu0_L1D PREFETCH REQUESTED:    1579540 ISSUED:    1578419 USEFUL:     166199 USELESS:     172131
cpu0_L1D AVERAGE MISS LATENCY: 211.9 cycles
cpu0_L1I TOTAL        ACCESS:          1 HIT:          0 MISS:          1
cpu0_L1I LOAD         ACCESS:          1 HIT:          0 MISS:          1
cpu0_L1I RFO          ACCESS:          0 HIT:          0 MISS:          0
cpu0_L1I PREFETCH     ACCESS:          0 HIT:          0 MISS:          0
cpu0_L1I WRITE        ACCESS:          0 HIT:          0 MISS:          0
cpu0_L1I TRANSLATION  ACCESS:          0 HIT:          0 MISS:          0
cpu0_L1I PREFETCH REQUESTED:          0 ISSUED:          0 USEFUL:          0 USELESS:          0
cpu0_L1I AVERAGE MISS LATENCY: 240 cycles
cpu0_L2C TOTAL        ACCESS:     830859 HIT:     198552 MISS:     632307
cpu0_L2C LOAD         ACCESS:     216760 HIT:        427 MISS:     216333
cpu0_L2C RFO          ACCESS:      11851 HIT:      11851 MISS:          0
cpu0_L2C PREFETCH     ACCESS:     417793 HIT:       1996 MISS:     415797
cpu0_L2C WRITE        ACCESS:     182291 HIT:     182291 MISS:          0
cpu0_L2C TRANSLATION  ACCESS:       2164 HIT:       1987 MISS:        177
cpu0_L2C PREFETCH REQUESTED:      79459 ISSUED:      79459 USEFUL:      57107 USELESS:          0
cpu0_L2C AVERAGE MISS LATENCY: 583.4 cycles
cpu0_STLB TOTAL        ACCESS:      44546 HIT:          0 MISS:      44546
cpu0_STLB LOAD         ACCESS:      44546 HIT:          0 MISS:      44546
cpu0_STLB RFO          ACCESS:          0 HIT:          0 MISS:          0
cpu0_STLB PREFETCH     ACCESS:          0 HIT:          0 MISS:          0
cpu0_STLB WRITE        ACCESS:          0 HIT:          0 MISS:          0
cpu0_STLB TRANSLATION  ACCESS:          0 HIT:          0 MISS:          0
cpu0_STLB PREFETCH REQUESTED:          0 ISSUED:          0 USEFUL:          0 USELESS:          0
cpu0_STLB AVERAGE MISS LATENCY: 209.3 cycles

DRAM Statistics

Channel 0 RQ ROW_BUFFER_HIT:     374978
  ROW_BUFFER_MISS:     178290
 AVG DBUS CONGESTED CYCLE: 3.845
WQ ROW_BUFFER_HIT: Channel 0 
  ROW_BUFFER_MISS:     101562
  FULL:      68589
