WARNING: physical memory size is smaller than virtual memory size.

*** ChampSim Multicore Out-of-Order Simulator ***
Warmup Instructions: 25000000
Simulation Instructions: 25000000
Number of CPUs: 1
Page size: 4096

Off-chip DRAM Size: 4 GiB Channels: 1 Width: 64-bit Data Race: 800 MT/s
Heartbeat CPU 0 instructions: 10000002 cycles: 2500079 heartbeat IPC: 4 cumulative IPC: 4 (Simulation time: 00 hr 00 min 41 sec)
Heartbeat CPU 0 instructions: 20000002 cycles: 5000079 heartbeat IPC: 4 cumulative IPC: 4 (Simulation time: 00 hr 01 min 23 sec)
Warmup finished CPU 0 instructions: 25000002 cycles: 6250080 cumulative IPC: 4 (Simulation time: 00 hr 01 min 44 sec)
Warmup complete CPU 0 instructions: 25000002 cycles: 6250080 cumulative IPC: 4 (Simulation time: 00 hr 01 min 44 sec)
Heartbeat CPU 0 instructions: 30000000 cycles: 13595313 heartbeat IPC: 1.163 cumulative IPC: 0.6807 (Simulation time: 00 hr 03 min 00 sec)
Heartbeat CPU 0 instructions: 40000003 cycles: 28684832 heartbeat IPC: 0.6627 cumulative IPC: 0.6686 (Simulation time: 00 hr 05 min 35 sec)
Heartbeat CPU 0 instructions: 50000002 cycles: 44008136 heartbeat IPC: 0.6526 cumulative IPC: 0.6621 (Simulation time: 00 hr 08 min 12 sec)
Simulation finished CPU 0 instructions: 25000000 cycles: 37758057 cumulative IPC: 0.6621 (Simulation time: 00 hr 08 min 12 sec)
Simulation complete CPU 0 instructions: 25000000 cycles: 37758057 cumulative IPC: 0.6621 (Simulation time: 00 hr 08 min 12 sec)

ChampSim completed all CPUs

=== Simulation ===
CPU 0 runs ./traces/milc_744B.trace.xz
Region of Interest Statistics

CPU 0 cumulative IPC: 0.6621 instructions: 25000000 cycles: 37758057
CPU 0 Branch Prediction Accuracy: 85.71% MPKI: 2.288 Average ROB Occupancy at Mispredict: 352
Branch type MPKI
BRANCH_DIRECT_JUMP: 0
BRANCH_INDIRECT: 0
BRANCH_CONDITIONAL: 2.29
BRANCH_DIRECT_CALL: 0
BRANCH_INDIRECT_CALL: 0
BRANCH_RETURN: 0

LLC TOTAL        ACCESS:     569725 HIT:      86448 MISS:     483277
LLC LOAD         ACCESS:     268826 HIT:          0 MISS:     268826
LLC RFO          ACCESS:          0 HIT:          0 MISS:          0
LLC PREFETCH     ACCESS:     214279 HIT:         91 MISS:     214188
LLC WRITE        ACCESS:      85115 HIT:      85114 MISS:          1
LLC TRANSLATION  ACCESS:       1505 HIT:       1243 MISS:        262
LLC PREFETCH REQUESTED:          0 ISSUED:          0 USEFUL:          0 USELESS:          0
LLC AVERAGE MISS LATENCY: 443.8 cycles
cpu0_DTLB TOTAL        ACCESS:    4351455 HIT:    3894146 MISS:     457309
cpu0_DTLB LOAD         ACCESS:    4351455 HIT:    3894146 MISS:     457309
cpu0_DTLB RFO          ACCESS:          0 HIT:          0 MISS:          0
cpu0_DTLB PREFETCH     ACCESS:          0 HIT:          0 MISS:          0
cpu0_DTLB WRITE        ACCESS:          0 HIT:          0 MISS:          0
cpu0_DTLB TRANSLATION  ACCESS:          0 HIT:          0 MISS:          0
cpu0_DTLB PREFETCH REQUESTED:          0 ISSUED:          0 USEFUL:          0 USELESS:          0
cpu0_DTLB AVERAGE MISS LATENCY: 12.44 cycles
cpu0_ITLB TOTAL        ACCESS:          0 HIT:          0 MISS:          0
cpu0_ITLB LOAD         ACCESS:          0 HIT:          0 MISS:          0
cpu0_ITLB RFO          ACCESS:          0 HIT:          0 MISS:          0
cpu0_ITLB PREFETCH     ACCESS:          0 HIT:          0 MISS:          0
cpu0_ITLB WRITE        ACCESS:          0 HIT:          0 MISS:          0
cpu0_ITLB TRANSLATION  ACCESS:          0 HIT:          0 MISS:          0
cpu0_ITLB PREFETCH REQUESTED:          0 ISSUED:          0 USEFUL:          0 USELESS:          0
cpu0_ITLB AVERAGE MISS LATENCY: -nan cycles
cpu0_L1D TOTAL        ACCESS:    8282485 HIT:    4054410 MISS:    4228075
cpu0_L1D LOAD         ACCESS:    4028408 HIT:    1368140 MISS:    2660268
cpu0_L1D RFO          ACCESS:          0 HIT:          0 MISS:          0
cpu0_L1D PREFETCH     ACCESS:    2592330 HIT:    1026927 MISS:    1565403
cpu0_L1D WRITE        ACCESS:    1628934 HIT:    1628934 MISS:          0
cpu0_L1D TRANSLATION  ACCESS:      32813 HIT:      30409 MISS:       2404
cpu0_L1D PREFETCH REQUESTED:    4028408 ISSUED:    2592321 USEFUL:      31485 USELESS:      90257
cpu0_L1D AVERAGE MISS LATENCY: 33.32 cycles
cpu0_L1I TOTAL        ACCESS:          0 HIT:          0 MISS:          0
cpu0_L1I LOAD         ACCESS:          0 HIT:          0 MISS:          0
cpu0_L1I RFO          ACCESS:          0 HIT:          0 MISS:          0
cpu0_L1I PREFETCH     ACCESS:          0 HIT:          0 MISS:          0
cpu0_L1I WRITE        ACCESS:          0 HIT:          0 MISS:          0
cpu0_L1I TRANSLATION  ACCESS:          0 HIT:          0 MISS:          0
cpu0_L1I PREFETCH REQUESTED:          0 ISSUED:          0 USEFUL:          0 USELESS:          0
cpu0_L1I AVERAGE MISS LATENCY: -nan cycles
cpu0_L2C TOTAL        ACCESS:     682023 HIT:     193753 MISS:     488270
cpu0_L2C LOAD         ACCESS:     318910 HIT:      50083 MISS:     268827
cpu0_L2C RFO          ACCESS:          0 HIT:          0 MISS:          0
cpu0_L2C PREFETCH     ACCESS:     275010 HIT:      60718 MISS:     214292
cpu0_L2C WRITE        ACCESS:      85736 HIT:      82090 MISS:       3646
cpu0_L2C TRANSLATION  ACCESS:       2367 HIT:        862 MISS:       1505
cpu0_L2C PREFETCH REQUESTED:     153348 ISSUED:     153348 USEFUL:      50885 USELESS:      42802
cpu0_L2C AVERAGE MISS LATENCY: 460.1 cycles
cpu0_STLB TOTAL        ACCESS:      33518 HIT:        771 MISS:      32747
cpu0_STLB LOAD         ACCESS:      33518 HIT:        771 MISS:      32747
cpu0_STLB RFO          ACCESS:          0 HIT:          0 MISS:          0
cpu0_STLB PREFETCH     ACCESS:          0 HIT:          0 MISS:          0
cpu0_STLB WRITE        ACCESS:          0 HIT:          0 MISS:          0
cpu0_STLB TRANSLATION  ACCESS:          0 HIT:          0 MISS:          0
cpu0_STLB PREFETCH REQUESTED:          0 ISSUED:          0 USEFUL:          0 USELESS:          0
cpu0_STLB AVERAGE MISS LATENCY: 211.7 cycles

DRAM Statistics

Channel 0 RQ ROW_BUFFER_HIT:     205515
  ROW_BUFFER_MISS:     277757
 AVG DBUS CONGESTED CYCLE: 3.884
WQ ROW_BUFFER_HIT: Channel 0 
  ROW_BUFFER_MISS:        748
  FULL:      79795
