WARNING: physical memory size is smaller than virtual memory size.

*** ChampSim Multicore Out-of-Order Simulator ***
Warmup Instructions: 25000000
Simulation Instructions: 25000000
Number of CPUs: 1
Page size: 4096

Off-chip DRAM Size: 4 GiB Channels: 1 Width: 64-bit Data Race: 800 MT/s
Heartbeat CPU 0 instructions: 10000003 cycles: 2517079 heartbeat IPC: 3.973 cumulative IPC: 3.973 (Simulation time: 00 hr 00 min 43 sec)
Heartbeat CPU 0 instructions: 20000001 cycles: 5026723 heartbeat IPC: 3.985 cumulative IPC: 3.979 (Simulation time: 00 hr 01 min 22 sec)
Warmup finished CPU 0 instructions: 25000003 cycles: 6285150 cumulative IPC: 3.978 (Simulation time: 00 hr 01 min 43 sec)
Warmup complete CPU 0 instructions: 25000003 cycles: 6285150 cumulative IPC: 3.978 (Simulation time: 00 hr 01 min 43 sec)
Heartbeat CPU 0 instructions: 30000000 cycles: 16178202 heartbeat IPC: 0.8967 cumulative IPC: 0.5054 (Simulation time: 00 hr 03 min 23 sec)
Heartbeat CPU 0 instructions: 40000001 cycles: 35802988 heartbeat IPC: 0.5096 cumulative IPC: 0.5082 (Simulation time: 00 hr 06 min 35 sec)
Heartbeat CPU 0 instructions: 50000002 cycles: 52989710 heartbeat IPC: 0.5818 cumulative IPC: 0.5353 (Simulation time: 00 hr 09 min 22 sec)
Simulation finished CPU 0 instructions: 25000003 cycles: 46704562 cumulative IPC: 0.5353 (Simulation time: 00 hr 09 min 22 sec)
Simulation complete CPU 0 instructions: 25000003 cycles: 46704562 cumulative IPC: 0.5353 (Simulation time: 00 hr 09 min 22 sec)

ChampSim completed all CPUs

=== Simulation ===
CPU 0 runs ./traces/omnetpp_4B.trace.xz
Region of Interest Statistics

CPU 0 cumulative IPC: 0.5353 instructions: 25000003 cycles: 46704562
CPU 0 Branch Prediction Accuracy: 96.67% MPKI: 10.7 Average ROB Occupancy at Mispredict: 31.4
Branch type MPKI
BRANCH_DIRECT_JUMP: 0.0128
BRANCH_INDIRECT: 0.125
BRANCH_CONDITIONAL: 10.5
BRANCH_DIRECT_CALL: 0.00156
BRANCH_INDIRECT_CALL: 0.00548
BRANCH_RETURN: 0.0298

LLC TOTAL        ACCESS:     923770 HIT:     307748 MISS:     616022
LLC LOAD         ACCESS:     571988 HIT:     189782 MISS:     382206
LLC RFO          ACCESS:       6356 HIT:        775 MISS:       5581
LLC PREFETCH     ACCESS:     260424 HIT:      87026 MISS:     173398
LLC WRITE        ACCESS:      20962 HIT:      20962 MISS:          0
LLC TRANSLATION  ACCESS:      64040 HIT:       9203 MISS:      54837
LLC PREFETCH REQUESTED:          0 ISSUED:          0 USEFUL:          0 USELESS:          0
LLC AVERAGE MISS LATENCY: 903.3 cycles
cpu0_DTLB TOTAL        ACCESS:    3067869 HIT:    2586234 MISS:     481635
cpu0_DTLB LOAD         ACCESS:    3067869 HIT:    2586234 MISS:     481635
cpu0_DTLB RFO          ACCESS:          0 HIT:          0 MISS:          0
cpu0_DTLB PREFETCH     ACCESS:          0 HIT:          0 MISS:          0
cpu0_DTLB WRITE        ACCESS:          0 HIT:          0 MISS:          0
cpu0_DTLB TRANSLATION  ACCESS:          0 HIT:          0 MISS:          0
cpu0_DTLB PREFETCH REQUESTED:          0 ISSUED:          0 USEFUL:          0 USELESS:          0
cpu0_DTLB AVERAGE MISS LATENCY: 285.4 cycles
cpu0_ITLB TOTAL        ACCESS:     265291 HIT:     247915 MISS:      17376
cpu0_ITLB LOAD         ACCESS:     265291 HIT:     247915 MISS:      17376
cpu0_ITLB RFO          ACCESS:          0 HIT:          0 MISS:          0
cpu0_ITLB PREFETCH     ACCESS:          0 HIT:          0 MISS:          0
cpu0_ITLB WRITE        ACCESS:          0 HIT:          0 MISS:          0
cpu0_ITLB TRANSLATION  ACCESS:          0 HIT:          0 MISS:          0
cpu0_ITLB PREFETCH REQUESTED:          0 ISSUED:          0 USEFUL:          0 USELESS:          0
cpu0_ITLB AVERAGE MISS LATENCY: 11.62 cycles
cpu0_L1D TOTAL        ACCESS:    5948719 HIT:    4800634 MISS:    1148085
cpu0_L1D LOAD         ACCESS:    2346729 HIT:    1711174 MISS:     635555
cpu0_L1D RFO          ACCESS:          0 HIT:          0 MISS:          0
cpu0_L1D PREFETCH     ACCESS:    2035213 HIT:    1641094 MISS:     394119
cpu0_L1D WRITE        ACCESS:    1204443 HIT:    1158012 MISS:      46431
cpu0_L1D TRANSLATION  ACCESS:     362334 HIT:     290354 MISS:      71980
cpu0_L1D PREFETCH REQUESTED:   26120943 ISSUED:    2035213 USEFUL:      31293 USELESS:     141574
cpu0_L1D AVERAGE MISS LATENCY: 480.6 cycles
cpu0_L1I TOTAL        ACCESS:     291471 HIT:     267408 MISS:      24063
cpu0_L1I LOAD         ACCESS:     291471 HIT:     267408 MISS:      24063
cpu0_L1I RFO          ACCESS:          0 HIT:          0 MISS:          0
cpu0_L1I PREFETCH     ACCESS:          0 HIT:          0 MISS:          0
cpu0_L1I WRITE        ACCESS:          0 HIT:          0 MISS:          0
cpu0_L1I TRANSLATION  ACCESS:          0 HIT:          0 MISS:          0
cpu0_L1I PREFETCH REQUESTED:          0 ISSUED:          0 USEFUL:          0 USELESS:          0
cpu0_L1I AVERAGE MISS LATENCY: 93.28 cycles
cpu0_L2C TOTAL        ACCESS:    1024809 HIT:      93796 MISS:     931013
cpu0_L2C LOAD         ACCESS:     610328 HIT:      30664 MISS:     579664
cpu0_L2C RFO          ACCESS:       8117 HIT:       1755 MISS:       6362
cpu0_L2C PREFETCH     ACCESS:     314719 HIT:      33788 MISS:     280931
cpu0_L2C WRITE        ACCESS:      23202 HIT:      23186 MISS:         16
cpu0_L2C TRANSLATION  ACCESS:      68443 HIT:       4403 MISS:      64040
cpu0_L2C PREFETCH REQUESTED:     141846 ISSUED:     141846 USEFUL:      32794 USELESS:       1057
cpu0_L2C AVERAGE MISS LATENCY: 599.4 cycles
cpu0_STLB TOTAL        ACCESS:     365493 HIT:       5908 MISS:     359585
cpu0_STLB LOAD         ACCESS:     365493 HIT:       5908 MISS:     359585
cpu0_STLB RFO          ACCESS:          0 HIT:          0 MISS:          0
cpu0_STLB PREFETCH     ACCESS:          0 HIT:          0 MISS:          0
cpu0_STLB WRITE        ACCESS:          0 HIT:          0 MISS:          0
cpu0_STLB TRANSLATION  ACCESS:          0 HIT:          0 MISS:          0
cpu0_STLB PREFETCH REQUESTED:          0 ISSUED:          0 USEFUL:          0 USELESS:          0
cpu0_STLB AVERAGE MISS LATENCY: 393.4 cycles

DRAM Statistics

Channel 0 RQ ROW_BUFFER_HIT:     248244
  ROW_BUFFER_MISS:     344780
 AVG DBUS CONGESTED CYCLE: 3.859
WQ ROW_BUFFER_HIT: Channel 0 
  ROW_BUFFER_MISS:       3225
  FULL:      15021
