WARNING: physical memory size is smaller than virtual memory size.

*** ChampSim Multicore Out-of-Order Simulator ***
Warmup Instructions: 25000000
Simulation Instructions: 25000000
Number of CPUs: 1
Page size: 4096

Off-chip DRAM Size: 4 GiB Channels: 1 Width: 64-bit Data Race: 800 MT/s
Heartbeat CPU 0 instructions: 10000003 cycles: 2582142 heartbeat IPC: 3.873 cumulative IPC: 3.873 (Simulation time: 00 hr 00 min 44 sec)
Heartbeat CPU 0 instructions: 20000002 cycles: 5137423 heartbeat IPC: 3.913 cumulative IPC: 3.893 (Simulation time: 00 hr 01 min 31 sec)
Warmup finished CPU 0 instructions: 25000001 cycles: 6423201 cumulative IPC: 3.892 (Simulation time: 00 hr 01 min 53 sec)
Warmup complete CPU 0 instructions: 25000001 cycles: 6423201 cumulative IPC: 3.892 (Simulation time: 00 hr 01 min 53 sec)
Heartbeat CPU 0 instructions: 30000003 cycles: 23594498 heartbeat IPC: 0.5418 cumulative IPC: 0.2912 (Simulation time: 00 hr 04 min 03 sec)
Heartbeat CPU 0 instructions: 40000000 cycles: 54622799 heartbeat IPC: 0.3223 cumulative IPC: 0.3112 (Simulation time: 00 hr 08 min 09 sec)
[cpu0_PTW_MSHR] entry:   0 address: 0x1611000 v_addr: 0x454f000 translation_level: 0 event_cycle: 18446744073709551615

DEADLOCK! CPU 0 cycle 83211346
[cpu0_IFETCH] entry:   0 instr_id: 48301454 fetched: 2 scheduled: 0 executed: 0 num_reg_dependent: 0 num_mem_ops: 1 event: 83201446
[cpu0_IFETCH] entry:   1 instr_id: 48301455 fetched: 2 scheduled: 0 executed: 0 num_reg_dependent: 0 num_mem_ops: 0 event: 83201446
[cpu0_IFETCH] entry:   2 instr_id: 48301456 fetched: 2 scheduled: 0 executed: 0 num_reg_dependent: 0 num_mem_ops: 1 event: 83201446
[cpu0_IFETCH] entry:   3 instr_id: 48301457 fetched: 2 scheduled: 0 executed: 0 num_reg_dependent: 0 num_mem_ops: 1 event: 83201448
[cpu0_IFETCH] entry:   4 instr_id: 48301458 fetched: 2 scheduled: 0 executed: 0 num_reg_dependent: 0 num_mem_ops: 1 event: 83201448
[cpu0_IFETCH] entry:   5 instr_id: 48301459 fetched: 2 scheduled: 0 executed: 0 num_reg_dependent: 0 num_mem_ops: 0 event: 83201448
[cpu0_IFETCH] entry:   6 instr_id: 48301460 fetched: 2 scheduled: 0 executed: 0 num_reg_dependent: 0 num_mem_ops: 1 event: 83201448
[cpu0_IFETCH] entry:   7 instr_id: 48301461 fetched: 2 scheduled: 0 executed: 0 num_reg_dependent: 0 num_mem_ops: 0 event: 83201448
[cpu0_IFETCH] entry:   8 instr_id: 48301462 fetched: 2 scheduled: 0 executed: 0 num_reg_dependent: 0 num_mem_ops: 1 event: 83201450
[cpu0_IFETCH] entry:   9 instr_id: 48301463 fetched: 2 scheduled: 0 executed: 0 num_reg_dependent: 0 num_mem_ops: 0 event: 83201450
[cpu0_IFETCH] entry:  10 instr_id: 48301464 fetched: 2 scheduled: 0 executed: 0 num_reg_dependent: 0 num_mem_ops: 1 event: 83201450
[cpu0_IFETCH] entry:  11 instr_id: 48301465 fetched: 2 scheduled: 0 executed: 0 num_reg_dependent: 0 num_mem_ops: 1 event: 83201452
[cpu0_IFETCH] entry:  12 instr_id: 48301466 fetched: 2 scheduled: 0 executed: 0 num_reg_dependent: 0 num_mem_ops: 1 event: 83201452
[cpu0_IFETCH] entry:  13 instr_id: 48301467 fetched: 2 scheduled: 0 executed: 0 num_reg_dependent: 0 num_mem_ops: 0 event: 83201452
[cpu0_IFETCH] entry:  14 instr_id: 48301468 fetched: 2 scheduled: 0 executed: 0 num_reg_dependent: 0 num_mem_ops: 1 event: 83201452
[cpu0_IFETCH] entry:  15 instr_id: 48301469 fetched: 2 scheduled: 0 executed: 0 num_reg_dependent: 0 num_mem_ops: 0 event: 83201452
[cpu0_IFETCH] entry:  16 instr_id: 48301470 fetched: 2 scheduled: 0 executed: 0 num_reg_dependent: 0 num_mem_ops: 1 event: 83201454
[cpu0_IFETCH] entry:  17 instr_id: 48301471 fetched: 2 scheduled: 0 executed: 0 num_reg_dependent: 0 num_mem_ops: 0 event: 83201454
[cpu0_IFETCH] entry:  18 instr_id: 48301472 fetched: 2 scheduled: 0 executed: 0 num_reg_dependent: 0 num_mem_ops: 1 event: 83201454
[cpu0_IFETCH] entry:  19 instr_id: 48301473 fetched: 2 scheduled: 0 executed: 0 num_reg_dependent: 0 num_mem_ops: 1 event: 83201456
[cpu0_IFETCH] entry:  20 instr_id: 48301474 fetched: 2 scheduled: 0 executed: 0 num_reg_dependent: 0 num_mem_ops: 1 event: 83201456
[cpu0_IFETCH] entry:  21 instr_id: 48301475 fetched: 2 scheduled: 0 executed: 0 num_reg_dependent: 0 num_mem_ops: 0 event: 83201456
[cpu0_IFETCH] entry:  22 instr_id: 48301476 fetched: 2 scheduled: 0 executed: 0 num_reg_dependent: 0 num_mem_ops: 1 event: 83201456
[cpu0_IFETCH] entry:  23 instr_id: 48301477 fetched: 2 scheduled: 0 executed: 0 num_reg_dependent: 0 num_mem_ops: 0 event: 83201456
[cpu0_IFETCH] entry:  24 instr_id: 48301478 fetched: 2 scheduled: 0 executed: 0 num_reg_dependent: 0 num_mem_ops: 1 event: 83201458
[cpu0_IFETCH] entry:  25 instr_id: 48301479 fetched: 2 scheduled: 0 executed: 0 num_reg_dependent: 0 num_mem_ops: 0 event: 83201458
[cpu0_IFETCH] entry:  26 instr_id: 48301480 fetched: 2 scheduled: 0 executed: 0 num_reg_dependent: 0 num_mem_ops: 1 event: 83201458
[cpu0_IFETCH] entry:  27 instr_id: 48301481 fetched: 2 scheduled: 0 executed: 0 num_reg_dependent: 0 num_mem_ops: 1 event: 83201460
[cpu0_IFETCH] entry:  28 instr_id: 48301482 fetched: 2 scheduled: 0 executed: 0 num_reg_dependent: 0 num_mem_ops: 1 event: 83201460
[cpu0_IFETCH] entry:  29 instr_id: 48301483 fetched: 2 scheduled: 0 executed: 0 num_reg_dependent: 0 num_mem_ops: 0 event: 83201460
[cpu0_IFETCH] entry:  30 instr_id: 48301484 fetched: 2 scheduled: 0 executed: 0 num_reg_dependent: 0 num_mem_ops: 1 event: 83201460
[cpu0_IFETCH] entry:  31 instr_id: 48301485 fetched: 2 scheduled: 0 executed: 0 num_reg_dependent: 0 num_mem_ops: 0 event: 83201460
[cpu0_IFETCH] entry:  32 instr_id: 48301486 fetched: 2 scheduled: 0 executed: 0 num_reg_dependent: 0 num_mem_ops: 1 event: 83201462
[cpu0_IFETCH] entry:  33 instr_id: 48301487 fetched: 2 scheduled: 0 executed: 0 num_reg_dependent: 0 num_mem_ops: 0 event: 83201462
[cpu0_IFETCH] entry:  34 instr_id: 48301488 fetched: 2 scheduled: 0 executed: 0 num_reg_dependent: 0 num_mem_ops: 1 event: 83201462
[cpu0_IFETCH] entry:  35 instr_id: 48301489 fetched: 2 scheduled: 0 executed: 0 num_reg_dependent: 0 num_mem_ops: 1 event: 83201464
[cpu0_IFETCH] entry:  36 instr_id: 48301490 fetched: 2 scheduled: 0 executed: 0 num_reg_dependent: 0 num_mem_ops: 1 event: 83201464
[cpu0_IFETCH] entry:  37 instr_id: 48301491 fetched: 2 scheduled: 0 executed: 0 num_reg_dependent: 0 num_mem_ops: 0 event: 83201464
[cpu0_IFETCH] entry:  38 instr_id: 48301492 fetched: 2 scheduled: 0 executed: 0 num_reg_dependent: 0 num_mem_ops: 1 event: 83201464
[cpu0_IFETCH] entry:  39 instr_id: 48301493 fetched: 2 scheduled: 0 executed: 0 num_reg_dependent: 0 num_mem_ops: 0 event: 83201464
[cpu0_IFETCH] entry:  40 instr_id: 48301494 fetched: 2 scheduled: 0 executed: 0 num_reg_dependent: 0 num_mem_ops: 1 event: 83201466
[cpu0_IFETCH] entry:  41 instr_id: 48301495 fetched: 2 scheduled: 0 executed: 0 num_reg_dependent: 0 num_mem_ops: 0 event: 83201466
[cpu0_IFETCH] entry:  42 instr_id: 48301496 fetched: 2 scheduled: 0 executed: 0 num_reg_dependent: 0 num_mem_ops: 1 event: 83201466
[cpu0_IFETCH] entry:  43 instr_id: 48301497 fetched: 2 scheduled: 0 executed: 0 num_reg_dependent: 0 num_mem_ops: 1 event: 83201468
[cpu0_IFETCH] entry:  44 instr_id: 48301498 fetched: 2 scheduled: 0 executed: 0 num_reg_dependent: 0 num_mem_ops: 1 event: 83201468
[cpu0_IFETCH] entry:  45 instr_id: 48301499 fetched: 2 scheduled: 0 executed: 0 num_reg_dependent: 0 num_mem_ops: 0 event: 83201468
[cpu0_IFETCH] entry:  46 instr_id: 48301500 fetched: 2 scheduled: 0 executed: 0 num_reg_dependent: 0 num_mem_ops: 1 event: 83201468
[cpu0_IFETCH] entry:  47 instr_id: 48301501 fetched: 2 scheduled: 0 executed: 0 num_reg_dependent: 0 num_mem_ops: 0 event: 83201468
[cpu0_IFETCH] entry:  48 instr_id: 48301502 fetched: 2 scheduled: 0 executed: 0 num_reg_dependent: 0 num_mem_ops: 1 event: 83201470
[cpu0_IFETCH] entry:  49 instr_id: 48301503 fetched: 2 scheduled: 0 executed: 0 num_reg_dependent: 0 num_mem_ops: 0 event: 83201470
[cpu0_IFETCH] entry:  50 instr_id: 48301504 fetched: 2 scheduled: 0 executed: 0 num_reg_dependent: 0 num_mem_ops: 1 event: 83201470
[cpu0_IFETCH] entry:  51 instr_id: 48301505 fetched: 2 scheduled: 0 executed: 0 num_reg_dependent: 0 num_mem_ops: 1 event: 83201784
[cpu0_IFETCH] entry:  52 instr_id: 48301506 fetched: 2 scheduled: 0 executed: 0 num_reg_dependent: 0 num_mem_ops: 1 event: 83201784
[cpu0_IFETCH] entry:  53 instr_id: 48301507 fetched: 2 scheduled: 0 executed: 0 num_reg_dependent: 0 num_mem_ops: 0 event: 83201784
[cpu0_IFETCH] entry:  54 instr_id: 48301508 fetched: 2 scheduled: 0 executed: 0 num_reg_dependent: 0 num_mem_ops: 1 event: 83201784
[cpu0_IFETCH] entry:  55 instr_id: 48301509 fetched: 2 scheduled: 0 executed: 0 num_reg_dependent: 0 num_mem_ops: 0 event: 83201784
[cpu0_IFETCH] entry:  56 instr_id: 48301510 fetched: 2 scheduled: 0 executed: 0 num_reg_dependent: 0 num_mem_ops: 1 event: 83201786
[cpu0_IFETCH] entry:  57 instr_id: 48301511 fetched: 2 scheduled: 0 executed: 0 num_reg_dependent: 0 num_mem_ops: 0 event: 83201786
[cpu0_IFETCH] entry:  58 instr_id: 48301512 fetched: 2 scheduled: 0 executed: 0 num_reg_dependent: 0 num_mem_ops: 1 event: 83201786
[cpu0_IFETCH] entry:  59 instr_id: 48301513 fetched: 2 scheduled: 0 executed: 0 num_reg_dependent: 0 num_mem_ops: 1 event: 83201788
[cpu0_IFETCH] entry:  60 instr_id: 48301514 fetched: 2 scheduled: 0 executed: 0 num_reg_dependent: 0 num_mem_ops: 1 event: 83201788
[cpu0_IFETCH] entry:  61 instr_id: 48301515 fetched: 2 scheduled: 0 executed: 0 num_reg_dependent: 0 num_mem_ops: 0 event: 83201788
[cpu0_IFETCH] entry:  62 instr_id: 48301516 fetched: 2 scheduled: 0 executed: 0 num_reg_dependent: 0 num_mem_ops: 1 event: 83201788
[cpu0_IFETCH] entry:  63 instr_id: 48301517 fetched: 2 scheduled: 0 executed: 0 num_reg_dependent: 0 num_mem_ops: 0 event: 83201788

[cpu0_DECODE] entry:   0 instr_id: 48301422 fetched: 2 scheduled: 0 executed: 0 num_reg_dependent: 0 num_mem_ops: 1 event: 83201461
[cpu0_DECODE] entry:   1 instr_id: 48301423 fetched: 2 scheduled: 0 executed: 0 num_reg_dependent: 0 num_mem_ops: 0 event: 83201461
[cpu0_DECODE] entry:   2 instr_id: 48301424 fetched: 2 scheduled: 0 executed: 0 num_reg_dependent: 0 num_mem_ops: 1 event: 83201461
[cpu0_DECODE] entry:   3 instr_id: 48301425 fetched: 2 scheduled: 0 executed: 0 num_reg_dependent: 0 num_mem_ops: 1 event: 83201463
[cpu0_DECODE] entry:   4 instr_id: 48301426 fetched: 2 scheduled: 0 executed: 0 num_reg_dependent: 0 num_mem_ops: 1 event: 83201463
[cpu0_DECODE] entry:   5 instr_id: 48301427 fetched: 2 scheduled: 0 executed: 0 num_reg_dependent: 0 num_mem_ops: 0 event: 83201463
[cpu0_DECODE] entry:   6 instr_id: 48301428 fetched: 2 scheduled: 0 executed: 0 num_reg_dependent: 0 num_mem_ops: 1 event: 83201463
[cpu0_DECODE] entry:   7 instr_id: 48301429 fetched: 2 scheduled: 0 executed: 0 num_reg_dependent: 0 num_mem_ops: 0 event: 83201463
[cpu0_DECODE] entry:   8 instr_id: 48301430 fetched: 2 scheduled: 0 executed: 0 num_reg_dependent: 0 num_mem_ops: 1 event: 83201465
[cpu0_DECODE] entry:   9 instr_id: 48301431 fetched: 2 scheduled: 0 executed: 0 num_reg_dependent: 0 num_mem_ops: 0 event: 83201465
[cpu0_DECODE] entry:  10 instr_id: 48301432 fetched: 2 scheduled: 0 executed: 0 num_reg_dependent: 0 num_mem_ops: 1 event: 83201465
[cpu0_DECODE] entry:  11 instr_id: 48301433 fetched: 2 scheduled: 0 executed: 0 num_reg_dependent: 0 num_mem_ops: 1 event: 83201467
[cpu0_DECODE] entry:  12 instr_id: 48301434 fetched: 2 scheduled: 0 executed: 0 num_reg_dependent: 0 num_mem_ops: 1 event: 83201467
[cpu0_DECODE] entry:  13 instr_id: 48301435 fetched: 2 scheduled: 0 executed: 0 num_reg_dependent: 0 num_mem_ops: 0 event: 83201467
[cpu0_DECODE] entry:  14 instr_id: 48301436 fetched: 2 scheduled: 0 executed: 0 num_reg_dependent: 0 num_mem_ops: 1 event: 83201467
[cpu0_DECODE] entry:  15 instr_id: 48301437 fetched: 2 scheduled: 0 executed: 0 num_reg_dependent: 0 num_mem_ops: 0 event: 83201467
[cpu0_DECODE] entry:  16 instr_id: 48301438 fetched: 2 scheduled: 0 executed: 0 num_reg_dependent: 0 num_mem_ops: 1 event: 83201469
[cpu0_DECODE] entry:  17 instr_id: 48301439 fetched: 2 scheduled: 0 executed: 0 num_reg_dependent: 0 num_mem_ops: 0 event: 83201469
[cpu0_DECODE] entry:  18 instr_id: 48301440 fetched: 2 scheduled: 0 executed: 0 num_reg_dependent: 0 num_mem_ops: 1 event: 83201469
[cpu0_DECODE] entry:  19 instr_id: 48301441 fetched: 2 scheduled: 0 executed: 0 num_reg_dependent: 0 num_mem_ops: 1 event: 83201783
[cpu0_DECODE] entry:  20 instr_id: 48301442 fetched: 2 scheduled: 0 executed: 0 num_reg_dependent: 0 num_mem_ops: 1 event: 83201783
[cpu0_DECODE] entry:  21 instr_id: 48301443 fetched: 2 scheduled: 0 executed: 0 num_reg_dependent: 0 num_mem_ops: 0 event: 83201783
[cpu0_DECODE] entry:  22 instr_id: 48301444 fetched: 2 scheduled: 0 executed: 0 num_reg_dependent: 0 num_mem_ops: 1 event: 83201783
[cpu0_DECODE] entry:  23 instr_id: 48301445 fetched: 2 scheduled: 0 executed: 0 num_reg_dependent: 0 num_mem_ops: 0 event: 83201783
[cpu0_DECODE] entry:  24 instr_id: 48301446 fetched: 2 scheduled: 0 executed: 0 num_reg_dependent: 0 num_mem_ops: 1 event: 83201785
[cpu0_DECODE] entry:  25 instr_id: 48301447 fetched: 2 scheduled: 0 executed: 0 num_reg_dependent: 0 num_mem_ops: 0 event: 83201785
[cpu0_DECODE] entry:  26 instr_id: 48301448 fetched: 2 scheduled: 0 executed: 0 num_reg_dependent: 0 num_mem_ops: 1 event: 83201785
[cpu0_DECODE] entry:  27 instr_id: 48301449 fetched: 2 scheduled: 0 executed: 0 num_reg_dependent: 0 num_mem_ops: 1 event: 83201787
[cpu0_DECODE] entry:  28 instr_id: 48301450 fetched: 2 scheduled: 0 executed: 0 num_reg_dependent: 0 num_mem_ops: 1 event: 83201787
[cpu0_DECODE] entry:  29 instr_id: 48301451 fetched: 2 scheduled: 0 executed: 0 num_reg_dependent: 0 num_mem_ops: 0 event: 83201787
[cpu0_DECODE] entry:  30 instr_id: 48301452 fetched: 2 scheduled: 0 executed: 0 num_reg_dependent: 0 num_mem_ops: 1 event: 83201787
[cpu0_DECODE] entry:  31 instr_id: 48301453 fetched: 2 scheduled: 0 executed: 0 num_reg_dependent: 0 num_mem_ops: 0 event: 83201787

[cpu0_DISPATCH] entry:   0 instr_id: 48301390 fetched: 2 scheduled: 0 executed: 0 num_reg_dependent: 0 num_mem_ops: 1 event: 83201462
[cpu0_DISPATCH] entry:   1 instr_id: 48301391 fetched: 2 scheduled: 0 executed: 0 num_reg_dependent: 0 num_mem_ops: 0 event: 83201462
[cpu0_DISPATCH] entry:   2 instr_id: 48301392 fetched: 2 scheduled: 0 executed: 0 num_reg_dependent: 0 num_mem_ops: 1 event: 83201462
[cpu0_DISPATCH] entry:   3 instr_id: 48301393 fetched: 2 scheduled: 0 executed: 0 num_reg_dependent: 0 num_mem_ops: 1 event: 83201464
[cpu0_DISPATCH] entry:   4 instr_id: 48301394 fetched: 2 scheduled: 0 executed: 0 num_reg_dependent: 0 num_mem_ops: 1 event: 83201464
[cpu0_DISPATCH] entry:   5 instr_id: 48301395 fetched: 2 scheduled: 0 executed: 0 num_reg_dependent: 0 num_mem_ops: 0 event: 83201464
[cpu0_DISPATCH] entry:   6 instr_id: 48301396 fetched: 2 scheduled: 0 executed: 0 num_reg_dependent: 0 num_mem_ops: 1 event: 83201464
[cpu0_DISPATCH] entry:   7 instr_id: 48301397 fetched: 2 scheduled: 0 executed: 0 num_reg_dependent: 0 num_mem_ops: 0 event: 83201464
[cpu0_DISPATCH] entry:   8 instr_id: 48301398 fetched: 2 scheduled: 0 executed: 0 num_reg_dependent: 0 num_mem_ops: 1 event: 83201466
[cpu0_DISPATCH] entry:   9 instr_id: 48301399 fetched: 2 scheduled: 0 executed: 0 num_reg_dependent: 0 num_mem_ops: 0 event: 83201466
[cpu0_DISPATCH] entry:  10 instr_id: 48301400 fetched: 2 scheduled: 0 executed: 0 num_reg_dependent: 0 num_mem_ops: 1 event: 83201466
[cpu0_DISPATCH] entry:  11 instr_id: 48301401 fetched: 2 scheduled: 0 executed: 0 num_reg_dependent: 0 num_mem_ops: 1 event: 83201468
[cpu0_DISPATCH] entry:  12 instr_id: 48301402 fetched: 2 scheduled: 0 executed: 0 num_reg_dependent: 0 num_mem_ops: 1 event: 83201468
[cpu0_DISPATCH] entry:  13 instr_id: 48301403 fetched: 2 scheduled: 0 executed: 0 num_reg_dependent: 0 num_mem_ops: 0 event: 83201468
[cpu0_DISPATCH] entry:  14 instr_id: 48301404 fetched: 2 scheduled: 0 executed: 0 num_reg_dependent: 0 num_mem_ops: 1 event: 83201468
[cpu0_DISPATCH] entry:  15 instr_id: 48301405 fetched: 2 scheduled: 0 executed: 0 num_reg_dependent: 0 num_mem_ops: 0 event: 83201468
[cpu0_DISPATCH] entry:  16 instr_id: 48301406 fetched: 2 scheduled: 0 executed: 0 num_reg_dependent: 0 num_mem_ops: 1 event: 83201470
[cpu0_DISPATCH] entry:  17 instr_id: 48301407 fetched: 2 scheduled: 0 executed: 0 num_reg_dependent: 0 num_mem_ops: 0 event: 83201470
[cpu0_DISPATCH] entry:  18 instr_id: 48301408 fetched: 2 scheduled: 0 executed: 0 num_reg_dependent: 0 num_mem_ops: 1 event: 83201470
[cpu0_DISPATCH] entry:  19 instr_id: 48301409 fetched: 2 scheduled: 0 executed: 0 num_reg_dependent: 0 num_mem_ops: 1 event: 83201784
[cpu0_DISPATCH] entry:  20 instr_id: 48301410 fetched: 2 scheduled: 0 executed: 0 num_reg_dependent: 0 num_mem_ops: 1 event: 83201784
[cpu0_DISPATCH] entry:  21 instr_id: 48301411 fetched: 2 scheduled: 0 executed: 0 num_reg_dependent: 0 num_mem_ops: 0 event: 83201784
[cpu0_DISPATCH] entry:  22 instr_id: 48301412 fetched: 2 scheduled: 0 executed: 0 num_reg_dependent: 0 num_mem_ops: 1 event: 83201784
[cpu0_DISPATCH] entry:  23 instr_id: 48301413 fetched: 2 scheduled: 0 executed: 0 num_reg_dependent: 0 num_mem_ops: 0 event: 83201784
[cpu0_DISPATCH] entry:  24 instr_id: 48301414 fetched: 2 scheduled: 0 executed: 0 num_reg_dependent: 0 num_mem_ops: 1 event: 83201786
[cpu0_DISPATCH] entry:  25 instr_id: 48301415 fetched: 2 scheduled: 0 executed: 0 num_reg_dependent: 0 num_mem_ops: 0 event: 83201786
[cpu0_DISPATCH] entry:  26 instr_id: 48301416 fetched: 2 scheduled: 0 executed: 0 num_reg_dependent: 0 num_mem_ops: 1 event: 83201786
[cpu0_DISPATCH] entry:  27 instr_id: 48301417 fetched: 2 scheduled: 0 executed: 0 num_reg_dependent: 0 num_mem_ops: 1 event: 83201788
[cpu0_DISPATCH] entry:  28 instr_id: 48301418 fetched: 2 scheduled: 0 executed: 0 num_reg_dependent: 0 num_mem_ops: 1 event: 83201788
[cpu0_DISPATCH] entry:  29 instr_id: 48301419 fetched: 2 scheduled: 0 executed: 0 num_reg_dependent: 0 num_mem_ops: 0 event: 83201788
[cpu0_DISPATCH] entry:  30 instr_id: 48301420 fetched: 2 scheduled: 0 executed: 0 num_reg_dependent: 0 num_mem_ops: 1 event: 83201788
[cpu0_DISPATCH] entry:  31 instr_id: 48301421 fetched: 2 scheduled: 0 executed: 0 num_reg_dependent: 0 num_mem_ops: 0 event: 83201788

[cpu0_ROB] entry:   0 instr_id: 48301244 fetched: 2 scheduled: 2 executed: 1 num_reg_dependent: 0 num_mem_ops: 1 event: 83201405
[cpu0_ROB] entry:   1 instr_id: 48301245 fetched: 2 scheduled: 2 executed: 0 num_reg_dependent: 1 num_mem_ops: 0 event: 83201404
[cpu0_ROB] entry:   2 instr_id: 48301246 fetched: 2 scheduled: 2 executed: 2 num_reg_dependent: 0 num_mem_ops: 0 event: 83201407
[cpu0_ROB] entry:   3 instr_id: 48301247 fetched: 2 scheduled: 2 executed: 2 num_reg_dependent: 0 num_mem_ops: 0 event: 83201407
[cpu0_ROB] entry:   4 instr_id: 48301248 fetched: 2 scheduled: 2 executed: 2 num_reg_dependent: 0 num_mem_ops: 0 event: 83201407
[cpu0_ROB] entry:   5 instr_id: 48301249 fetched: 2 scheduled: 2 executed: 2 num_reg_dependent: 0 num_mem_ops: 0 event: 83201409
[cpu0_ROB] entry:   6 instr_id: 48301250 fetched: 2 scheduled: 2 executed: 2 num_reg_dependent: 0 num_mem_ops: 0 event: 83201409
[cpu0_ROB] entry:   7 instr_id: 48301251 fetched: 2 scheduled: 2 executed: 2 num_reg_dependent: 0 num_mem_ops: 0 event: 83201409
[cpu0_ROB] entry:   8 instr_id: 48301252 fetched: 2 scheduled: 2 executed: 1 num_reg_dependent: 0 num_mem_ops: 1 event: 83201409
[cpu0_ROB] entry:   9 instr_id: 48301253 fetched: 2 scheduled: 2 executed: 0 num_reg_dependent: 2 num_mem_ops: 0 event: 83201408
[cpu0_ROB] entry:  10 instr_id: 48301254 fetched: 2 scheduled: 2 executed: 2 num_reg_dependent: 0 num_mem_ops: 0 event: 83201411
[cpu0_ROB] entry:  11 instr_id: 48301255 fetched: 2 scheduled: 2 executed: 2 num_reg_dependent: 0 num_mem_ops: 0 event: 83201411
[cpu0_ROB] entry:  12 instr_id: 48301256 fetched: 2 scheduled: 2 executed: 2 num_reg_dependent: 0 num_mem_ops: 0 event: 83201411
[cpu0_ROB] entry:  13 instr_id: 48301257 fetched: 2 scheduled: 2 executed: 2 num_reg_dependent: 0 num_mem_ops: 0 event: 83201413
[cpu0_ROB] entry:  14 instr_id: 48301258 fetched: 2 scheduled: 2 executed: 2 num_reg_dependent: 0 num_mem_ops: 0 event: 83201413
[cpu0_ROB] entry:  15 instr_id: 48301259 fetched: 2 scheduled: 2 executed: 2 num_reg_dependent: 0 num_mem_ops: 0 event: 83201413
[cpu0_ROB] entry:  16 instr_id: 48301260 fetched: 2 scheduled: 2 executed: 1 num_reg_dependent: 0 num_mem_ops: 1 event: 83201413
[cpu0_ROB] entry:  17 instr_id: 48301261 fetched: 2 scheduled: 2 executed: 0 num_reg_dependent: 2 num_mem_ops: 0 event: 83201412
[cpu0_ROB] entry:  18 instr_id: 48301262 fetched: 2 scheduled: 2 executed: 2 num_reg_dependent: 0 num_mem_ops: 0 event: 83201415
[cpu0_ROB] entry:  19 instr_id: 48301263 fetched: 2 scheduled: 2 executed: 2 num_reg_dependent: 0 num_mem_ops: 0 event: 83201415
[cpu0_ROB] entry:  20 instr_id: 48301264 fetched: 2 scheduled: 2 executed: 2 num_reg_dependent: 0 num_mem_ops: 0 event: 83201415
[cpu0_ROB] entry:  21 instr_id: 48301265 fetched: 2 scheduled: 2 executed: 2 num_reg_dependent: 0 num_mem_ops: 0 event: 83201417
[cpu0_ROB] entry:  22 instr_id: 48301266 fetched: 2 scheduled: 2 executed: 2 num_reg_dependent: 0 num_mem_ops: 0 event: 83201417
[cpu0_ROB] entry:  23 instr_id: 48301267 fetched: 2 scheduled: 2 executed: 2 num_reg_dependent: 0 num_mem_ops: 0 event: 83201417
[cpu0_ROB] entry:  24 instr_id: 48301268 fetched: 2 scheduled: 2 executed: 1 num_reg_dependent: 0 num_mem_ops: 1 event: 83201417
[cpu0_ROB] entry:  25 instr_id: 48301269 fetched: 2 scheduled: 2 executed: 0 num_reg_dependent: 2 num_mem_ops: 0 event: 83201416
[cpu0_ROB] entry:  26 instr_id: 48301270 fetched: 2 scheduled: 2 executed: 2 num_reg_dependent: 0 num_mem_ops: 0 event: 83201419
[cpu0_ROB] entry:  27 instr_id: 48301271 fetched: 2 scheduled: 2 executed: 2 num_reg_dependent: 0 num_mem_ops: 0 event: 83201419
[cpu0_ROB] entry:  28 instr_id: 48301272 fetched: 2 scheduled: 2 executed: 2 num_reg_dependent: 0 num_mem_ops: 0 event: 83201419
[cpu0_ROB] entry:  29 instr_id: 48301273 fetched: 2 scheduled: 2 executed: 2 num_reg_dependent: 0 num_mem_ops: 0 event: 83201421
[cpu0_ROB] entry:  30 instr_id: 48301274 fetched: 2 scheduled: 2 executed: 2 num_reg_dependent: 0 num_mem_ops: 0 event: 83201421
[cpu0_ROB] entry:  31 instr_id: 48301275 fetched: 2 scheduled: 2 executed: 2 num_reg_dependent: 0 num_mem_ops: 0 event: 83201421
[cpu0_ROB] entry:  32 instr_id: 48301276 fetched: 2 scheduled: 2 executed: 1 num_reg_dependent: 0 num_mem_ops: 1 event: 83201421
[cpu0_ROB] entry:  33 instr_id: 48301277 fetched: 2 scheduled: 2 executed: 0 num_reg_dependent: 2 num_mem_ops: 0 event: 83201420
[cpu0_ROB] entry:  34 instr_id: 48301278 fetched: 2 scheduled: 2 executed: 2 num_reg_dependent: 0 num_mem_ops: 0 event: 83201423
[cpu0_ROB] entry:  35 instr_id: 48301279 fetched: 2 scheduled: 2 executed: 2 num_reg_dependent: 0 num_mem_ops: 0 event: 83201423
[cpu0_ROB] entry:  36 instr_id: 48301280 fetched: 2 scheduled: 2 executed: 2 num_reg_dependent: 0 num_mem_ops: 0 event: 83201423
[cpu0_ROB] entry:  37 instr_id: 48301281 fetched: 2 scheduled: 2 executed: 2 num_reg_dependent: 0 num_mem_ops: 0 event: 83201425
[cpu0_ROB] entry:  38 instr_id: 48301282 fetched: 2 scheduled: 2 executed: 2 num_reg_dependent: 0 num_mem_ops: 0 event: 83201425
[cpu0_ROB] entry:  39 instr_id: 48301283 fetched: 2 scheduled: 2 executed: 2 num_reg_dependent: 0 num_mem_ops: 0 event: 83201425
[cpu0_ROB] entry:  40 instr_id: 48301284 fetched: 2 scheduled: 2 executed: 1 num_reg_dependent: 0 num_mem_ops: 1 event: 83201425
[cpu0_ROB] entry:  41 instr_id: 48301285 fetched: 2 scheduled: 2 executed: 0 num_reg_dependent: 2 num_mem_ops: 0 event: 83201424
[cpu0_ROB] entry:  42 instr_id: 48301286 fetched: 2 scheduled: 2 executed: 2 num_reg_dependent: 0 num_mem_ops: 0 event: 83201427
[cpu0_ROB] entry:  43 instr_id: 48301287 fetched: 2 scheduled: 2 executed: 2 num_reg_dependent: 0 num_mem_ops: 0 event: 83201427
[cpu0_ROB] entry:  44 instr_id: 48301288 fetched: 2 scheduled: 2 executed: 2 num_reg_dependent: 0 num_mem_ops: 0 event: 83201427
[cpu0_ROB] entry:  45 instr_id: 48301289 fetched: 2 scheduled: 2 executed: 2 num_reg_dependent: 0 num_mem_ops: 0 event: 83201429
[cpu0_ROB] entry:  46 instr_id: 48301290 fetched: 2 scheduled: 2 executed: 2 num_reg_dependent: 0 num_mem_ops: 0 event: 83201429
[cpu0_ROB] entry:  47 instr_id: 48301291 fetched: 2 scheduled: 2 executed: 2 num_reg_dependent: 0 num_mem_ops: 0 event: 83201429
[cpu0_ROB] entry:  48 instr_id: 48301292 fetched: 2 scheduled: 2 executed: 1 num_reg_dependent: 0 num_mem_ops: 1 event: 83201429
[cpu0_ROB] entry:  49 instr_id: 48301293 fetched: 2 scheduled: 2 executed: 0 num_reg_dependent: 2 num_mem_ops: 0 event: 83201428
[cpu0_ROB] entry:  50 instr_id: 48301294 fetched: 2 scheduled: 2 executed: 2 num_reg_dependent: 0 num_mem_ops: 0 event: 83201431
[cpu0_ROB] entry:  51 instr_id: 48301295 fetched: 2 scheduled: 2 executed: 2 num_reg_dependent: 0 num_mem_ops: 0 event: 83201431
[cpu0_ROB] entry:  52 instr_id: 48301296 fetched: 2 scheduled: 2 executed: 2 num_reg_dependent: 0 num_mem_ops: 0 event: 83201431
[cpu0_ROB] entry:  53 instr_id: 48301297 fetched: 2 scheduled: 2 executed: 2 num_reg_dependent: 0 num_mem_ops: 0 event: 83201433
[cpu0_ROB] entry:  54 instr_id: 48301298 fetched: 2 scheduled: 2 executed: 2 num_reg_dependent: 0 num_mem_ops: 0 event: 83201433
[cpu0_ROB] entry:  55 instr_id: 48301299 fetched: 2 scheduled: 2 executed: 2 num_reg_dependent: 0 num_mem_ops: 0 event: 83201433
[cpu0_ROB] entry:  56 instr_id: 48301300 fetched: 2 scheduled: 2 executed: 1 num_reg_dependent: 0 num_mem_ops: 1 event: 83201433
[cpu0_ROB] entry:  57 instr_id: 48301301 fetched: 2 scheduled: 2 executed: 0 num_reg_dependent: 2 num_mem_ops: 0 event: 83201432
[cpu0_ROB] entry:  58 instr_id: 48301302 fetched: 2 scheduled: 2 executed: 2 num_reg_dependent: 0 num_mem_ops: 0 event: 83201435
[cpu0_ROB] entry:  59 instr_id: 48301303 fetched: 2 scheduled: 2 executed: 2 num_reg_dependent: 0 num_mem_ops: 0 event: 83201435
[cpu0_ROB] entry:  60 instr_id: 48301304 fetched: 2 scheduled: 2 executed: 2 num_reg_dependent: 0 num_mem_ops: 0 event: 83201435
[cpu0_ROB] entry:  61 instr_id: 48301305 fetched: 2 scheduled: 2 executed: 2 num_reg_dependent: 0 num_mem_ops: 0 event: 83201437
[cpu0_ROB] entry:  62 instr_id: 48301306 fetched: 2 scheduled: 2 executed: 2 num_reg_dependent: 0 num_mem_ops: 0 event: 83201437
[cpu0_ROB] entry:  63 instr_id: 48301307 fetched: 2 scheduled: 2 executed: 2 num_reg_dependent: 0 num_mem_ops: 0 event: 83201437
[cpu0_ROB] entry:  64 instr_id: 48301308 fetched: 2 scheduled: 2 executed: 1 num_reg_dependent: 0 num_mem_ops: 1 event: 83201437
[cpu0_ROB] entry:  65 instr_id: 48301309 fetched: 2 scheduled: 2 executed: 0 num_reg_dependent: 2 num_mem_ops: 0 event: 83201436
[cpu0_ROB] entry:  66 instr_id: 48301310 fetched: 2 scheduled: 2 executed: 2 num_reg_dependent: 0 num_mem_ops: 0 event: 83201439
[cpu0_ROB] entry:  67 instr_id: 48301311 fetched: 2 scheduled: 2 executed: 2 num_reg_dependent: 0 num_mem_ops: 0 event: 83201439
[cpu0_ROB] entry:  68 instr_id: 48301312 fetched: 2 scheduled: 2 executed: 2 num_reg_dependent: 0 num_mem_ops: 0 event: 83201439
[cpu0_ROB] entry:  69 instr_id: 48301313 fetched: 2 scheduled: 2 executed: 2 num_reg_dependent: 0 num_mem_ops: 0 event: 83201441
[cpu0_ROB] entry:  70 instr_id: 48301314 fetched: 2 scheduled: 2 executed: 2 num_reg_dependent: 0 num_mem_ops: 0 event: 83201441
[cpu0_ROB] entry:  71 instr_id: 48301315 fetched: 2 scheduled: 2 executed: 2 num_reg_dependent: 0 num_mem_ops: 0 event: 83201441
[cpu0_ROB] entry:  72 instr_id: 48301316 fetched: 2 scheduled: 2 executed: 1 num_reg_dependent: 0 num_mem_ops: 1 event: 83201441
[cpu0_ROB] entry:  73 instr_id: 48301317 fetched: 2 scheduled: 2 executed: 0 num_reg_dependent: 2 num_mem_ops: 0 event: 83201440
[cpu0_ROB] entry:  74 instr_id: 48301318 fetched: 2 scheduled: 2 executed: 2 num_reg_dependent: 0 num_mem_ops: 0 event: 83201443
[cpu0_ROB] entry:  75 instr_id: 48301319 fetched: 2 scheduled: 2 executed: 2 num_reg_dependent: 0 num_mem_ops: 0 event: 83201443
[cpu0_ROB] entry:  76 instr_id: 48301320 fetched: 2 scheduled: 2 executed: 2 num_reg_dependent: 0 num_mem_ops: 0 event: 83201443
[cpu0_ROB] entry:  77 instr_id: 48301321 fetched: 2 scheduled: 2 executed: 2 num_reg_dependent: 0 num_mem_ops: 0 event: 83201445
[cpu0_ROB] entry:  78 instr_id: 48301322 fetched: 2 scheduled: 2 executed: 2 num_reg_dependent: 0 num_mem_ops: 0 event: 83201445
[cpu0_ROB] entry:  79 instr_id: 48301323 fetched: 2 scheduled: 2 executed: 2 num_reg_dependent: 0 num_mem_ops: 0 event: 83201445
[cpu0_ROB] entry:  80 instr_id: 48301324 fetched: 2 scheduled: 2 executed: 1 num_reg_dependent: 0 num_mem_ops: 1 event: 83201445
[cpu0_ROB] entry:  81 instr_id: 48301325 fetched: 2 scheduled: 2 executed: 0 num_reg_dependent: 2 num_mem_ops: 0 event: 83201444
[cpu0_ROB] entry:  82 instr_id: 48301326 fetched: 2 scheduled: 2 executed: 2 num_reg_dependent: 0 num_mem_ops: 0 event: 83201447
[cpu0_ROB] entry:  83 instr_id: 48301327 fetched: 2 scheduled: 2 executed: 2 num_reg_dependent: 0 num_mem_ops: 0 event: 83201447
[cpu0_ROB] entry:  84 instr_id: 48301328 fetched: 2 scheduled: 2 executed: 2 num_reg_dependent: 0 num_mem_ops: 0 event: 83201447
[cpu0_ROB] entry:  85 instr_id: 48301329 fetched: 2 scheduled: 2 executed: 2 num_reg_dependent: 0 num_mem_ops: 0 event: 83201449
[cpu0_ROB] entry:  86 instr_id: 48301330 fetched: 2 scheduled: 2 executed: 2 num_reg_dependent: 0 num_mem_ops: 0 event: 83201449
[cpu0_ROB] entry:  87 instr_id: 48301331 fetched: 2 scheduled: 2 executed: 2 num_reg_dependent: 0 num_mem_ops: 0 event: 83201449
[cpu0_ROB] entry:  88 instr_id: 48301332 fetched: 2 scheduled: 2 executed: 1 num_reg_dependent: 0 num_mem_ops: 1 event: 83201449
[cpu0_ROB] entry:  89 instr_id: 48301333 fetched: 2 scheduled: 2 executed: 0 num_reg_dependent: 2 num_mem_ops: 0 event: 83201448
[cpu0_ROB] entry:  90 instr_id: 48301334 fetched: 2 scheduled: 2 executed: 2 num_reg_dependent: 0 num_mem_ops: 0 event: 83201451
[cpu0_ROB] entry:  91 instr_id: 48301335 fetched: 2 scheduled: 2 executed: 2 num_reg_dependent: 0 num_mem_ops: 0 event: 83201451
[cpu0_ROB] entry:  92 instr_id: 48301336 fetched: 2 scheduled: 2 executed: 2 num_reg_dependent: 0 num_mem_ops: 0 event: 83201451
[cpu0_ROB] entry:  93 instr_id: 48301337 fetched: 2 scheduled: 2 executed: 2 num_reg_dependent: 0 num_mem_ops: 0 event: 83201453
[cpu0_ROB] entry:  94 instr_id: 48301338 fetched: 2 scheduled: 2 executed: 2 num_reg_dependent: 0 num_mem_ops: 0 event: 83201453
[cpu0_ROB] entry:  95 instr_id: 48301339 fetched: 2 scheduled: 2 executed: 2 num_reg_dependent: 0 num_mem_ops: 0 event: 83201453
[cpu0_ROB] entry:  96 instr_id: 48301340 fetched: 2 scheduled: 2 executed: 1 num_reg_dependent: 0 num_mem_ops: 1 event: 83201453
[cpu0_ROB] entry:  97 instr_id: 48301341 fetched: 2 scheduled: 2 executed: 0 num_reg_dependent: 2 num_mem_ops: 0 event: 83201452
[cpu0_ROB] entry:  98 instr_id: 48301342 fetched: 2 scheduled: 2 executed: 2 num_reg_dependent: 0 num_mem_ops: 0 event: 83201455
[cpu0_ROB] entry:  99 instr_id: 48301343 fetched: 2 scheduled: 2 executed: 2 num_reg_dependent: 0 num_mem_ops: 0 event: 83201455
[cpu0_ROB] entry: 100 instr_id: 48301344 fetched: 2 scheduled: 2 executed: 2 num_reg_dependent: 0 num_mem_ops: 0 event: 83201455
[cpu0_ROB] entry: 101 instr_id: 48301345 fetched: 2 scheduled: 2 executed: 2 num_reg_dependent: 0 num_mem_ops: 0 event: 83201457
[cpu0_ROB] entry: 102 instr_id: 48301346 fetched: 2 scheduled: 2 executed: 2 num_reg_dependent: 0 num_mem_ops: 0 event: 83201457
[cpu0_ROB] entry: 103 instr_id: 48301347 fetched: 2 scheduled: 2 executed: 2 num_reg_dependent: 0 num_mem_ops: 0 event: 83201457
[cpu0_ROB] entry: 104 instr_id: 48301348 fetched: 2 scheduled: 2 executed: 1 num_reg_dependent: 0 num_mem_ops: 1 event: 83201457
[cpu0_ROB] entry: 105 instr_id: 48301349 fetched: 2 scheduled: 2 executed: 0 num_reg_dependent: 2 num_mem_ops: 0 event: 83201456
[cpu0_ROB] entry: 106 instr_id: 48301350 fetched: 2 scheduled: 2 executed: 2 num_reg_dependent: 0 num_mem_ops: 0 event: 83201459
[cpu0_ROB] entry: 107 instr_id: 48301351 fetched: 2 scheduled: 2 executed: 2 num_reg_dependent: 0 num_mem_ops: 0 event: 83201459
[cpu0_ROB] entry: 108 instr_id: 48301352 fetched: 2 scheduled: 2 executed: 2 num_reg_dependent: 0 num_mem_ops: 0 event: 83201459
[cpu0_ROB] entry: 109 instr_id: 48301353 fetched: 2 scheduled: 2 executed: 2 num_reg_dependent: 0 num_mem_ops: 0 event: 83201461
[cpu0_ROB] entry: 110 instr_id: 48301354 fetched: 2 scheduled: 2 executed: 2 num_reg_dependent: 0 num_mem_ops: 0 event: 83201461
[cpu0_ROB] entry: 111 instr_id: 48301355 fetched: 2 scheduled: 2 executed: 2 num_reg_dependent: 0 num_mem_ops: 0 event: 83201461
[cpu0_ROB] entry: 112 instr_id: 48301356 fetched: 2 scheduled: 2 executed: 1 num_reg_dependent: 0 num_mem_ops: 1 event: 83201461
[cpu0_ROB] entry: 113 instr_id: 48301357 fetched: 2 scheduled: 2 executed: 0 num_reg_dependent: 2 num_mem_ops: 0 event: 83201460
[cpu0_ROB] entry: 114 instr_id: 48301358 fetched: 2 scheduled: 2 executed: 2 num_reg_dependent: 0 num_mem_ops: 0 event: 83201463
[cpu0_ROB] entry: 115 instr_id: 48301359 fetched: 2 scheduled: 2 executed: 2 num_reg_dependent: 0 num_mem_ops: 0 event: 83201463
[cpu0_ROB] entry: 116 instr_id: 48301360 fetched: 2 scheduled: 2 executed: 2 num_reg_dependent: 0 num_mem_ops: 0 event: 83201463
[cpu0_ROB] entry: 117 instr_id: 48301361 fetched: 2 scheduled: 2 executed: 2 num_reg_dependent: 0 num_mem_ops: 0 event: 83201465
[cpu0_ROB] entry: 118 instr_id: 48301362 fetched: 2 scheduled: 2 executed: 2 num_reg_dependent: 0 num_mem_ops: 0 event: 83201465
[cpu0_ROB] entry: 119 instr_id: 48301363 fetched: 2 scheduled: 2 executed: 2 num_reg_dependent: 0 num_mem_ops: 0 event: 83201465
[cpu0_ROB] entry: 120 instr_id: 48301364 fetched: 2 scheduled: 2 executed: 1 num_reg_dependent: 0 num_mem_ops: 1 event: 83201465
[cpu0_ROB] entry: 121 instr_id: 48301365 fetched: 2 scheduled: 2 executed: 0 num_reg_dependent: 2 num_mem_ops: 0 event: 83201464
[cpu0_ROB] entry: 122 instr_id: 48301366 fetched: 2 scheduled: 2 executed: 2 num_reg_dependent: 0 num_mem_ops: 0 event: 83201467
[cpu0_ROB] entry: 123 instr_id: 48301367 fetched: 2 scheduled: 2 executed: 2 num_reg_dependent: 0 num_mem_ops: 0 event: 83201467
[cpu0_ROB] entry: 124 instr_id: 48301368 fetched: 2 scheduled: 2 executed: 2 num_reg_dependent: 0 num_mem_ops: 0 event: 83201467
[cpu0_ROB] entry: 125 instr_id: 48301369 fetched: 2 scheduled: 2 executed: 2 num_reg_dependent: 0 num_mem_ops: 0 event: 83201469
[cpu0_ROB] entry: 126 instr_id: 48301370 fetched: 2 scheduled: 2 executed: 2 num_reg_dependent: 0 num_mem_ops: 0 event: 83201469
[cpu0_ROB] entry: 127 instr_id: 48301371 fetched: 2 scheduled: 2 executed: 2 num_reg_dependent: 0 num_mem_ops: 0 event: 83201469
[cpu0_ROB] entry: 128 instr_id: 48301372 fetched: 2 scheduled: 2 executed: 1 num_reg_dependent: 0 num_mem_ops: 1 event: 83201469
[cpu0_ROB] entry: 129 instr_id: 48301373 fetched: 2 scheduled: 2 executed: 0 num_reg_dependent: 2 num_mem_ops: 0 event: 83201468
[cpu0_ROB] entry: 130 instr_id: 48301374 fetched: 2 scheduled: 2 executed: 2 num_reg_dependent: 0 num_mem_ops: 0 event: 83201471
[cpu0_ROB] entry: 131 instr_id: 48301375 fetched: 2 scheduled: 2 executed: 2 num_reg_dependent: 0 num_mem_ops: 0 event: 83201471
[cpu0_ROB] entry: 132 instr_id: 48301376 fetched: 2 scheduled: 2 executed: 2 num_reg_dependent: 0 num_mem_ops: 0 event: 83201471
[cpu0_ROB] entry: 133 instr_id: 48301377 fetched: 2 scheduled: 2 executed: 2 num_reg_dependent: 0 num_mem_ops: 0 event: 83201785
[cpu0_ROB] entry: 134 instr_id: 48301378 fetched: 2 scheduled: 2 executed: 2 num_reg_dependent: 0 num_mem_ops: 0 event: 83201785
[cpu0_ROB] entry: 135 instr_id: 48301379 fetched: 2 scheduled: 2 executed: 2 num_reg_dependent: 0 num_mem_ops: 0 event: 83201785
[cpu0_ROB] entry: 136 instr_id: 48301380 fetched: 2 scheduled: 2 executed: 1 num_reg_dependent: 0 num_mem_ops: 1 event: 83201785
[cpu0_ROB] entry: 137 instr_id: 48301381 fetched: 2 scheduled: 2 executed: 0 num_reg_dependent: 2 num_mem_ops: 0 event: 83201784
[cpu0_ROB] entry: 138 instr_id: 48301382 fetched: 2 scheduled: 2 executed: 2 num_reg_dependent: 0 num_mem_ops: 0 event: 83201787
[cpu0_ROB] entry: 139 instr_id: 48301383 fetched: 2 scheduled: 2 executed: 2 num_reg_dependent: 0 num_mem_ops: 0 event: 83201787
[cpu0_ROB] entry: 140 instr_id: 48301384 fetched: 2 scheduled: 2 executed: 2 num_reg_dependent: 0 num_mem_ops: 0 event: 83201787
[cpu0_ROB] entry: 141 instr_id: 48301385 fetched: 2 scheduled: 2 executed: 2 num_reg_dependent: 0 num_mem_ops: 0 event: 83201789
[cpu0_ROB] entry: 142 instr_id: 48301386 fetched: 2 scheduled: 2 executed: 2 num_reg_dependent: 0 num_mem_ops: 0 event: 83201789
[cpu0_ROB] entry: 143 instr_id: 48301387 fetched: 2 scheduled: 2 executed: 2 num_reg_dependent: 0 num_mem_ops: 0 event: 83201789
[cpu0_ROB] entry: 144 instr_id: 48301388 fetched: 2 scheduled: 2 executed: 1 num_reg_dependent: 0 num_mem_ops: 1 event: 83201789
[cpu0_ROB] entry: 145 instr_id: 48301389 fetched: 2 scheduled: 2 executed: 0 num_reg_dependent: 2 num_mem_ops: 0 event: 83201788

[cpu0_LQ] entry:   0 instr_id: 48301244 address: 0x7fff917a98fc fetch_issued: true event_cycle: 83201405 waits on -
[cpu0_LQ] entry:   1 instr_id: 48301252 address: 0x7fff917a98fc fetch_issued: true event_cycle: 83201409 waits on -
[cpu0_LQ] entry:   2 instr_id: 48301260 address: 0x7fff917a98fc fetch_issued: true event_cycle: 83201413 waits on -
[cpu0_LQ] entry:   3 instr_id: 48301268 address: 0x7fff917a98fc fetch_issued: true event_cycle: 83201417 waits on -
[cpu0_LQ] entry:   4 instr_id: 48301276 address: 0x7fff917a98fc fetch_issued: true event_cycle: 83201421 waits on -
[cpu0_LQ] entry:   5 instr_id: 48301284 address: 0x7fff917a98fc fetch_issued: true event_cycle: 83201425 waits on -
[cpu0_LQ] entry:   6 instr_id: 48301292 address: 0x7fff917a98fc fetch_issued: true event_cycle: 83201429 waits on -
[cpu0_LQ] entry:   7 instr_id: 48301300 address: 0x7fff917a98fc fetch_issued: true event_cycle: 83201433 waits on -
[cpu0_LQ] entry:   8 instr_id: 48301308 address: 0x7fff917a98fc fetch_issued: true event_cycle: 83201437 waits on -
[cpu0_LQ] entry:   9 instr_id: 48301316 address: 0x7fff917a98fc fetch_issued: true event_cycle: 83201441 waits on -
[cpu0_LQ] entry:  10 instr_id: 48301324 address: 0x7fff917a98fc fetch_issued: true event_cycle: 83201445 waits on -
[cpu0_LQ] entry:  11 instr_id: 48301332 address: 0x7fff917a98fc fetch_issued: true event_cycle: 83201449 waits on -
[cpu0_LQ] entry:  12 instr_id: 48301340 address: 0x7fff917a98fc fetch_issued: true event_cycle: 83201453 waits on -
[cpu0_LQ] entry:  13 instr_id: 48301348 address: 0x7fff917a98fc fetch_issued: true event_cycle: 83201457 waits on -
[cpu0_LQ] entry:  14 instr_id: 48301356 address: 0x7fff917a98fc fetch_issued: true event_cycle: 83201461 waits on -
[cpu0_LQ] entry:  15 instr_id: 48301364 address: 0x7fff917a98fc fetch_issued: true event_cycle: 83201465 waits on -
[cpu0_LQ] entry:  16 instr_id: 48301372 address: 0x7fff917a98fc fetch_issued: true event_cycle: 83201469 waits on -
[cpu0_LQ] entry:  17 instr_id: 48301380 address: 0x7fff917a98fc fetch_issued: true event_cycle: 83201785 waits on -
[cpu0_LQ] entry:  18 instr_id: 48301388 address: 0x7fff917a98fc fetch_issued: true event_cycle: 83201789 waits on -
[cpu0_LQ] entry:  19 empty
[cpu0_LQ] entry:  20 empty
[cpu0_LQ] entry:  21 empty
[cpu0_LQ] entry:  22 empty
[cpu0_LQ] entry:  23 empty
[cpu0_LQ] entry:  24 empty
[cpu0_LQ] entry:  25 empty
[cpu0_LQ] entry:  26 empty
[cpu0_LQ] entry:  27 empty
[cpu0_LQ] entry:  28 empty
[cpu0_LQ] entry:  29 empty
[cpu0_LQ] entry:  30 empty
[cpu0_LQ] entry:  31 empty
[cpu0_LQ] entry:  32 empty
[cpu0_LQ] entry:  33 empty
[cpu0_LQ] entry:  34 empty
[cpu0_LQ] entry:  35 empty
[cpu0_LQ] entry:  36 empty
[cpu0_LQ] entry:  37 empty
[cpu0_LQ] entry:  38 empty
[cpu0_LQ] entry:  39 empty
[cpu0_LQ] entry:  40 empty
[cpu0_LQ] entry:  41 empty
[cpu0_LQ] entry:  42 empty
[cpu0_LQ] entry:  43 empty
[cpu0_LQ] entry:  44 empty
[cpu0_LQ] entry:  45 empty
[cpu0_LQ] entry:  46 empty
[cpu0_LQ] entry:  47 empty
[cpu0_LQ] entry:  48 empty
[cpu0_LQ] entry:  49 empty
[cpu0_LQ] entry:  50 empty
[cpu0_LQ] entry:  51 empty
[cpu0_LQ] entry:  52 empty
[cpu0_LQ] entry:  53 empty
[cpu0_LQ] entry:  54 empty
[cpu0_LQ] entry:  55 empty
[cpu0_LQ] entry:  56 empty
[cpu0_LQ] entry:  57 empty
[cpu0_LQ] entry:  58 empty
[cpu0_LQ] entry:  59 empty
[cpu0_LQ] entry:  60 empty
[cpu0_LQ] entry:  61 empty
[cpu0_LQ] entry:  62 empty
[cpu0_LQ] entry:  63 empty
[cpu0_LQ] entry:  64 empty
[cpu0_LQ] entry:  65 empty
[cpu0_LQ] entry:  66 empty
[cpu0_LQ] entry:  67 empty
[cpu0_LQ] entry:  68 empty
[cpu0_LQ] entry:  69 empty
[cpu0_LQ] entry:  70 empty
[cpu0_LQ] entry:  71 empty
[cpu0_LQ] entry:  72 empty
[cpu0_LQ] entry:  73 empty
[cpu0_LQ] entry:  74 empty
[cpu0_LQ] entry:  75 empty
[cpu0_LQ] entry:  76 empty
[cpu0_LQ] entry:  77 empty
[cpu0_LQ] entry:  78 empty
[cpu0_LQ] entry:  79 empty
[cpu0_LQ] entry:  80 empty
[cpu0_LQ] entry:  81 empty
[cpu0_LQ] entry:  82 empty
[cpu0_LQ] entry:  83 empty
[cpu0_LQ] entry:  84 empty
[cpu0_LQ] entry:  85 empty
[cpu0_LQ] entry:  86 empty
[cpu0_LQ] entry:  87 empty
[cpu0_LQ] entry:  88 empty
[cpu0_LQ] entry:  89 empty
[cpu0_LQ] entry:  90 empty
[cpu0_LQ] entry:  91 empty
[cpu0_LQ] entry:  92 empty
[cpu0_LQ] entry:  93 empty
[cpu0_LQ] entry:  94 empty
[cpu0_LQ] entry:  95 empty
[cpu0_LQ] entry:  96 empty
[cpu0_LQ] entry:  97 empty
[cpu0_LQ] entry:  98 empty
[cpu0_LQ] entry:  99 empty
[cpu0_LQ] entry: 100 empty
[cpu0_LQ] entry: 101 empty
[cpu0_LQ] entry: 102 empty
[cpu0_LQ] entry: 103 empty
[cpu0_LQ] entry: 104 empty
[cpu0_LQ] entry: 105 empty
[cpu0_LQ] entry: 106 empty
[cpu0_LQ] entry: 107 empty
[cpu0_LQ] entry: 108 empty
[cpu0_LQ] entry: 109 empty
[cpu0_LQ] entry: 110 empty
[cpu0_LQ] entry: 111 empty
[cpu0_LQ] entry: 112 empty
[cpu0_LQ] entry: 113 empty
[cpu0_LQ] entry: 114 empty
[cpu0_LQ] entry: 115 empty
[cpu0_LQ] entry: 116 empty
[cpu0_LQ] entry: 117 empty
[cpu0_LQ] entry: 118 empty
[cpu0_LQ] entry: 119 empty
[cpu0_LQ] entry: 120 empty
[cpu0_LQ] entry: 121 empty
[cpu0_LQ] entry: 122 empty
[cpu0_LQ] entry: 123 empty
[cpu0_LQ] entry: 124 empty
[cpu0_LQ] entry: 125 empty
[cpu0_LQ] entry: 126 empty
[cpu0_LQ] entry: 127 empty

[cpu0_SQ] entry:   0 instr_id: 48301246 address: 0x4575058 fetch_issued: true event_cycle: 83201407 LQ waiting: []
[cpu0_SQ] entry:   1 instr_id: 48301248 address: 0x459b058 fetch_issued: true event_cycle: 83201407 LQ waiting: []
[cpu0_SQ] entry:   2 instr_id: 48301249 address: 0x4529058 fetch_issued: true event_cycle: 83201409 LQ waiting: []
[cpu0_SQ] entry:   3 instr_id: 48301250 address: 0x454f058 fetch_issued: true event_cycle: 83201409 LQ waiting: []
[cpu0_SQ] entry:   4 instr_id: 48301254 address: 0x457505c fetch_issued: true event_cycle: 83201411 LQ waiting: []
[cpu0_SQ] entry:   5 instr_id: 48301256 address: 0x459b05c fetch_issued: true event_cycle: 83201411 LQ waiting: []
[cpu0_SQ] entry:   6 instr_id: 48301257 address: 0x452905c fetch_issued: true event_cycle: 83201413 LQ waiting: []
[cpu0_SQ] entry:   7 instr_id: 48301258 address: 0x454f05c fetch_issued: true event_cycle: 83201413 LQ waiting: []
[cpu0_SQ] entry:   8 instr_id: 48301262 address: 0x4575060 fetch_issued: true event_cycle: 83201415 LQ waiting: []
[cpu0_SQ] entry:   9 instr_id: 48301264 address: 0x459b060 fetch_issued: true event_cycle: 83201415 LQ waiting: []
[cpu0_SQ] entry:  10 instr_id: 48301265 address: 0x4529060 fetch_issued: true event_cycle: 83201417 LQ waiting: []
[cpu0_SQ] entry:  11 instr_id: 48301266 address: 0x454f060 fetch_issued: true event_cycle: 83201417 LQ waiting: []
[cpu0_SQ] entry:  12 instr_id: 48301270 address: 0x4575064 fetch_issued: true event_cycle: 83201419 LQ waiting: []
[cpu0_SQ] entry:  13 instr_id: 48301272 address: 0x459b064 fetch_issued: true event_cycle: 83201419 LQ waiting: []
[cpu0_SQ] entry:  14 instr_id: 48301273 address: 0x4529064 fetch_issued: true event_cycle: 83201421 LQ waiting: []
[cpu0_SQ] entry:  15 instr_id: 48301274 address: 0x454f064 fetch_issued: true event_cycle: 83201421 LQ waiting: []
[cpu0_SQ] entry:  16 instr_id: 48301278 address: 0x4575068 fetch_issued: true event_cycle: 83201423 LQ waiting: []
[cpu0_SQ] entry:  17 instr_id: 48301280 address: 0x459b068 fetch_issued: true event_cycle: 83201423 LQ waiting: []
[cpu0_SQ] entry:  18 instr_id: 48301281 address: 0x4529068 fetch_issued: true event_cycle: 83201425 LQ waiting: []
[cpu0_SQ] entry:  19 instr_id: 48301282 address: 0x454f068 fetch_issued: true event_cycle: 83201425 LQ waiting: []
[cpu0_SQ] entry:  20 instr_id: 48301286 address: 0x457506c fetch_issued: true event_cycle: 83201427 LQ waiting: []
[cpu0_SQ] entry:  21 instr_id: 48301288 address: 0x459b06c fetch_issued: true event_cycle: 83201427 LQ waiting: []
[cpu0_SQ] entry:  22 instr_id: 48301289 address: 0x452906c fetch_issued: true event_cycle: 83201429 LQ waiting: []
[cpu0_SQ] entry:  23 instr_id: 48301290 address: 0x454f06c fetch_issued: true event_cycle: 83201429 LQ waiting: []
[cpu0_SQ] entry:  24 instr_id: 48301294 address: 0x4575070 fetch_issued: true event_cycle: 83201431 LQ waiting: []
[cpu0_SQ] entry:  25 instr_id: 48301296 address: 0x459b070 fetch_issued: true event_cycle: 83201431 LQ waiting: []
[cpu0_SQ] entry:  26 instr_id: 48301297 address: 0x4529070 fetch_issued: true event_cycle: 83201433 LQ waiting: []
[cpu0_SQ] entry:  27 instr_id: 48301298 address: 0x454f070 fetch_issued: true event_cycle: 83201433 LQ waiting: []
[cpu0_SQ] entry:  28 instr_id: 48301302 address: 0x4575074 fetch_issued: true event_cycle: 83201435 LQ waiting: []
[cpu0_SQ] entry:  29 instr_id: 48301304 address: 0x459b074 fetch_issued: true event_cycle: 83201435 LQ waiting: []
[cpu0_SQ] entry:  30 instr_id: 48301305 address: 0x4529074 fetch_issued: true event_cycle: 83201437 LQ waiting: []
[cpu0_SQ] entry:  31 instr_id: 48301306 address: 0x454f074 fetch_issued: true event_cycle: 83201437 LQ waiting: []
[cpu0_SQ] entry:  32 instr_id: 48301310 address: 0x4575078 fetch_issued: true event_cycle: 83201439 LQ waiting: []
[cpu0_SQ] entry:  33 instr_id: 48301312 address: 0x459b078 fetch_issued: true event_cycle: 83201439 LQ waiting: []
[cpu0_SQ] entry:  34 instr_id: 48301313 address: 0x4529078 fetch_issued: true event_cycle: 83201441 LQ waiting: []
[cpu0_SQ] entry:  35 instr_id: 48301314 address: 0x454f078 fetch_issued: true event_cycle: 83201441 LQ waiting: []
[cpu0_SQ] entry:  36 instr_id: 48301318 address: 0x457507c fetch_issued: true event_cycle: 83201443 LQ waiting: []
[cpu0_SQ] entry:  37 instr_id: 48301320 address: 0x459b07c fetch_issued: true event_cycle: 83201443 LQ waiting: []
[cpu0_SQ] entry:  38 instr_id: 48301321 address: 0x452907c fetch_issued: true event_cycle: 83201445 LQ waiting: []
[cpu0_SQ] entry:  39 instr_id: 48301322 address: 0x454f07c fetch_issued: true event_cycle: 83201445 LQ waiting: []
[cpu0_SQ] entry:  40 instr_id: 48301326 address: 0x4575080 fetch_issued: true event_cycle: 83201447 LQ waiting: []
[cpu0_SQ] entry:  41 instr_id: 48301328 address: 0x459b080 fetch_issued: true event_cycle: 83201447 LQ waiting: []
[cpu0_SQ] entry:  42 instr_id: 48301329 address: 0x4529080 fetch_issued: true event_cycle: 83201449 LQ waiting: []
[cpu0_SQ] entry:  43 instr_id: 48301330 address: 0x454f080 fetch_issued: true event_cycle: 83201449 LQ waiting: []
[cpu0_SQ] entry:  44 instr_id: 48301334 address: 0x4575084 fetch_issued: true event_cycle: 83201451 LQ waiting: []
[cpu0_SQ] entry:  45 instr_id: 48301336 address: 0x459b084 fetch_issued: true event_cycle: 83201451 LQ waiting: []
[cpu0_SQ] entry:  46 instr_id: 48301337 address: 0x4529084 fetch_issued: true event_cycle: 83201453 LQ waiting: []
[cpu0_SQ] entry:  47 instr_id: 48301338 address: 0x454f084 fetch_issued: true event_cycle: 83201453 LQ waiting: []
[cpu0_SQ] entry:  48 instr_id: 48301342 address: 0x4575088 fetch_issued: true event_cycle: 83201455 LQ waiting: []
[cpu0_SQ] entry:  49 instr_id: 48301344 address: 0x459b088 fetch_issued: true event_cycle: 83201455 LQ waiting: []
[cpu0_SQ] entry:  50 instr_id: 48301345 address: 0x4529088 fetch_issued: true event_cycle: 83201457 LQ waiting: []
[cpu0_SQ] entry:  51 instr_id: 48301346 address: 0x454f088 fetch_issued: true event_cycle: 83201457 LQ waiting: []
[cpu0_SQ] entry:  52 instr_id: 48301350 address: 0x457508c fetch_issued: true event_cycle: 83201459 LQ waiting: []
[cpu0_SQ] entry:  53 instr_id: 48301352 address: 0x459b08c fetch_issued: true event_cycle: 83201459 LQ waiting: []
[cpu0_SQ] entry:  54 instr_id: 48301353 address: 0x452908c fetch_issued: true event_cycle: 83201461 LQ waiting: []
[cpu0_SQ] entry:  55 instr_id: 48301354 address: 0x454f08c fetch_issued: true event_cycle: 83201461 LQ waiting: []
[cpu0_SQ] entry:  56 instr_id: 48301358 address: 0x4575090 fetch_issued: true event_cycle: 83201463 LQ waiting: []
[cpu0_SQ] entry:  57 instr_id: 48301360 address: 0x459b090 fetch_issued: true event_cycle: 83201463 LQ waiting: []
[cpu0_SQ] entry:  58 instr_id: 48301361 address: 0x4529090 fetch_issued: true event_cycle: 83201465 LQ waiting: []
[cpu0_SQ] entry:  59 instr_id: 48301362 address: 0x454f090 fetch_issued: true event_cycle: 83201465 LQ waiting: []
[cpu0_SQ] entry:  60 instr_id: 48301366 address: 0x4575094 fetch_issued: true event_cycle: 83201467 LQ waiting: []
[cpu0_SQ] entry:  61 instr_id: 48301368 address: 0x459b094 fetch_issued: true event_cycle: 83201467 LQ waiting: []
[cpu0_SQ] entry:  62 instr_id: 48301369 address: 0x4529094 fetch_issued: true event_cycle: 83201469 LQ waiting: []
[cpu0_SQ] entry:  63 instr_id: 48301370 address: 0x454f094 fetch_issued: true event_cycle: 83201469 LQ waiting: []
[cpu0_SQ] entry:  64 instr_id: 48301374 address: 0x4575098 fetch_issued: true event_cycle: 83201471 LQ waiting: []
[cpu0_SQ] entry:  65 instr_id: 48301376 address: 0x459b098 fetch_issued: true event_cycle: 83201471 LQ waiting: []
[cpu0_SQ] entry:  66 instr_id: 48301377 address: 0x4529098 fetch_issued: true event_cycle: 83201785 LQ waiting: []
[cpu0_SQ] entry:  67 instr_id: 48301378 address: 0x454f098 fetch_issued: true event_cycle: 83201785 LQ waiting: []
[cpu0_SQ] entry:  68 instr_id: 48301382 address: 0x457509c fetch_issued: true event_cycle: 83201787 LQ waiting: []
[cpu0_SQ] entry:  69 instr_id: 48301384 address: 0x459b09c fetch_issued: true event_cycle: 83201787 LQ waiting: []
[cpu0_SQ] entry:  70 instr_id: 48301385 address: 0x452909c fetch_issued: true event_cycle: 83201789 LQ waiting: []
[cpu0_SQ] entry:  71 instr_id: 48301386 address: 0x454f09c fetch_issued: true event_cycle: 83201789 LQ waiting: []

LLC_MSHR empty

LLC_tags empty

LLC_translation empty

LLC_RQ empty

LLC_WQ empty

LLC_PQ empty

[cpu0_DTLB_MSHR] entry:   0 instr_id: 48301202 address: 0x454f040 v_addr: 0x454f040 type: LOAD event: 18446744073709551615

cpu0_DTLB_tags empty

cpu0_DTLB_translation empty

cpu0_DTLB_RQ empty

cpu0_DTLB_WQ empty

cpu0_DTLB_PQ empty

cpu0_ITLB_MSHR empty

cpu0_ITLB_tags empty

cpu0_ITLB_translation empty

cpu0_ITLB_RQ empty

cpu0_ITLB_WQ empty

cpu0_ITLB_PQ empty

cpu0_L1D_MSHR empty

cpu0_L1D_tags empty

[cpu0_L1D_translation] entry:   0 instr_id: 48301074 address: 0x454f000 v_addr: 0x454f000 is_translated: false translate_issued: true event_cycle: 83201396
[cpu0_L1D_translation] entry:   1 instr_id: 48301082 address: 0x454f004 v_addr: 0x454f004 is_translated: false translate_issued: true event_cycle: 83201400
[cpu0_L1D_translation] entry:   2 instr_id: 48301090 address: 0x454f008 v_addr: 0x454f008 is_translated: false translate_issued: true event_cycle: 83201405
[cpu0_L1D_translation] entry:   3 instr_id: 48301098 address: 0x454f00c v_addr: 0x454f00c is_translated: false translate_issued: true event_cycle: 83201411
[cpu0_L1D_translation] entry:   4 instr_id: 48301106 address: 0x454f010 v_addr: 0x454f010 is_translated: false translate_issued: true event_cycle: 83201786
[cpu0_L1D_translation] entry:   5 instr_id: 48301114 address: 0x454f014 v_addr: 0x454f014 is_translated: false translate_issued: true event_cycle: 83201788
[cpu0_L1D_translation] entry:   6 instr_id: 48301122 address: 0x454f018 v_addr: 0x454f018 is_translated: false translate_issued: true event_cycle: 83201792
[cpu0_L1D_translation] entry:   7 instr_id: 48301130 address: 0x454f01c v_addr: 0x454f01c is_translated: false translate_issued: true event_cycle: 83201794
[cpu0_L1D_translation] entry:   8 instr_id: 48301138 address: 0x454f020 v_addr: 0x454f020 is_translated: false translate_issued: true event_cycle: 83201798
[cpu0_L1D_translation] entry:   9 instr_id: 48301146 address: 0x454f024 v_addr: 0x454f024 is_translated: false translate_issued: true event_cycle: 83201800
[cpu0_L1D_translation] entry:  10 instr_id: 48301154 address: 0x454f028 v_addr: 0x454f028 is_translated: false translate_issued: true event_cycle: 83201804
[cpu0_L1D_translation] entry:  11 instr_id: 48301162 address: 0x454f02c v_addr: 0x454f02c is_translated: false translate_issued: true event_cycle: 83201806
[cpu0_L1D_translation] entry:  12 instr_id: 48301170 address: 0x454f030 v_addr: 0x454f030 is_translated: false translate_issued: true event_cycle: 83201810
[cpu0_L1D_translation] entry:  13 instr_id: 48301178 address: 0x454f034 v_addr: 0x454f034 is_translated: false translate_issued: true event_cycle: 83201812
[cpu0_L1D_translation] entry:  14 instr_id: 48301186 address: 0x454f038 v_addr: 0x454f038 is_translated: false translate_issued: true event_cycle: 83201816
[cpu0_L1D_translation] entry:  15 instr_id: 48301194 address: 0x454f03c v_addr: 0x454f03c is_translated: false translate_issued: true event_cycle: 83201818
[cpu0_L1D_translation] entry:  16 instr_id: 48301202 address: 0x454f040 v_addr: 0x454f040 is_translated: false translate_issued: true event_cycle: 83201822

cpu0_L1D_RQ empty

cpu0_L1D_WQ empty

cpu0_L1D_PQ empty

[cpu0_L1D_RQ] entry:   0 instr_id: 48301236 address: 0x7fff917a98fc v_addr: 0x7fff917a98fc type: LOAD translated: false

[cpu0_L1D_WQ] entry:   0 instr_id: 48301210 address: 0x454f044 v_addr: 0x454f044 type: WRITE translated: false
[cpu0_L1D_WQ] entry:   1 instr_id: 48301214 address: 0x4575048 v_addr: 0x4575048 type: WRITE translated: false
[cpu0_L1D_WQ] entry:   2 instr_id: 48301216 address: 0x459b048 v_addr: 0x459b048 type: WRITE translated: false
[cpu0_L1D_WQ] entry:   3 instr_id: 48301217 address: 0x4529048 v_addr: 0x4529048 type: WRITE translated: false
[cpu0_L1D_WQ] entry:   4 instr_id: 48301218 address: 0x454f048 v_addr: 0x454f048 type: WRITE translated: false
[cpu0_L1D_WQ] entry:   5 instr_id: 48301222 address: 0x457504c v_addr: 0x457504c type: WRITE translated: false
[cpu0_L1D_WQ] entry:   6 instr_id: 48301224 address: 0x459b04c v_addr: 0x459b04c type: WRITE translated: false
[cpu0_L1D_WQ] entry:   7 instr_id: 48301225 address: 0x452904c v_addr: 0x452904c type: WRITE translated: false
[cpu0_L1D_WQ] entry:   8 instr_id: 48301226 address: 0x454f04c v_addr: 0x454f04c type: WRITE translated: false
[cpu0_L1D_WQ] entry:   9 instr_id: 48301230 address: 0x4575050 v_addr: 0x4575050 type: WRITE translated: false
[cpu0_L1D_WQ] entry:  10 instr_id: 48301232 address: 0x459b050 v_addr: 0x459b050 type: WRITE translated: false
[cpu0_L1D_WQ] entry:  11 instr_id: 48301233 address: 0x4529050 v_addr: 0x4529050 type: WRITE translated: false
[cpu0_L1D_WQ] entry:  12 instr_id: 48301234 address: 0x454f050 v_addr: 0x454f050 type: WRITE translated: false
[cpu0_L1D_WQ] entry:  13 instr_id: 48301238 address: 0x4575054 v_addr: 0x4575054 type: WRITE translated: false
[cpu0_L1D_WQ] entry:  14 instr_id: 48301240 address: 0x459b054 v_addr: 0x459b054 type: WRITE translated: false
[cpu0_L1D_WQ] entry:  15 instr_id: 48301241 address: 0x4529054 v_addr: 0x4529054 type: WRITE translated: false
[cpu0_L1D_WQ] entry:  16 instr_id: 48301242 address: 0x454f054 v_addr: 0x454f054 type: WRITE translated: false

cpu0_L1D_PQ empty

cpu0_L1I_MSHR empty

cpu0_L1I_tags empty

cpu0_L1I_translation empty

cpu0_L1I_RQ empty

cpu0_L1I_WQ empty

cpu0_L1I_PQ empty

cpu0_L2C_MSHR empty

cpu0_L2C_tags empty

cpu0_L2C_translation empty

cpu0_L2C_RQ empty

cpu0_L2C_WQ empty

cpu0_L2C_PQ empty

cpu0_L2C_RQ empty

cpu0_L2C_WQ empty

cpu0_L2C_PQ empty

[cpu0_STLB_MSHR] entry:   0 instr_id: 48301074 address: 0x454f000 v_addr: 0x454f000 type: LOAD event: 18446744073709551615

cpu0_STLB_tags empty

cpu0_STLB_translation empty

cpu0_STLB_RQ empty

cpu0_STLB_WQ empty

cpu0_STLB_PQ empty

cpu0_STLB_RQ empty

cpu0_STLB_WQ empty

cpu0_STLB_PQ empty

cpu0_STLB_RQ empty

cpu0_STLB_WQ empty

cpu0_STLB_PQ empty

DRAM Channel 0
[RQ] entry:   0 empty
[RQ] entry:   1 empty
[RQ] entry:   2 empty
[RQ] entry:   3 empty
[RQ] entry:   4 empty
[RQ] entry:   5 empty
[RQ] entry:   6 empty
[RQ] entry:   7 empty
[RQ] entry:   8 empty
[RQ] entry:   9 empty
[RQ] entry:  10 empty
[RQ] entry:  11 empty
[RQ] entry:  12 empty
[RQ] entry:  13 empty
[RQ] entry:  14 empty
[RQ] entry:  15 empty
[RQ] entry:  16 empty
[RQ] entry:  17 empty
[RQ] entry:  18 empty
[RQ] entry:  19 empty
[RQ] entry:  20 empty
[RQ] entry:  21 empty
[RQ] entry:  22 empty
[RQ] entry:  23 empty
[RQ] entry:  24 empty
[RQ] entry:  25 empty
[RQ] entry:  26 empty
[RQ] entry:  27 empty
[RQ] entry:  28 empty
[RQ] entry:  29 empty
[RQ] entry:  30 empty
[RQ] entry:  31 empty
[RQ] entry:  32 empty
[RQ] entry:  33 empty
[RQ] entry:  34 empty
[RQ] entry:  35 empty
[RQ] entry:  36 empty
[RQ] entry:  37 empty
[RQ] entry:  38 empty
[RQ] entry:  39 empty
[RQ] entry:  40 empty
[RQ] entry:  41 empty
[RQ] entry:  42 empty
[RQ] en