WARNING: physical memory size is smaller than virtual memory size.

*** ChampSim Multicore Out-of-Order Simulator ***
Warmup Instructions: 25000000
Simulation Instructions: 25000000
Number of CPUs: 1
Page size: 4096

Off-chip DRAM Size: 4 GiB Channels: 1 Width: 64-bit Data Race: 800 MT/s
Heartbeat CPU 0 instructions: 10000003 cycles: 2531163 heartbeat IPC: 3.951 cumulative IPC: 3.951 (Simulation time: 00 hr 00 min 39 sec)
Heartbeat CPU 0 instructions: 20000003 cycles: 5061976 heartbeat IPC: 3.951 cumulative IPC: 3.951 (Simulation time: 00 hr 01 min 19 sec)
Warmup finished CPU 0 instructions: 25000001 cycles: 6327248 cumulative IPC: 3.951 (Simulation time: 00 hr 01 min 38 sec)
Warmup complete CPU 0 instructions: 25000001 cycles: 6327248 cumulative IPC: 3.951 (Simulation time: 00 hr 01 min 38 sec)
Heartbeat CPU 0 instructions: 30000003 cycles: 13383258 heartbeat IPC: 1.202 cumulative IPC: 0.7086 (Simulation time: 00 hr 02 min 45 sec)
Heartbeat CPU 0 instructions: 40000002 cycles: 27404326 heartbeat IPC: 0.7132 cumulative IPC: 0.7117 (Simulation time: 00 hr 05 min 01 sec)
Heartbeat CPU 0 instructions: 50000003 cycles: 41217159 heartbeat IPC: 0.724 cumulative IPC: 0.7165 (Simulation time: 00 hr 07 min 11 sec)
Simulation finished CPU 0 instructions: 25000002 cycles: 34889912 cumulative IPC: 0.7165 (Simulation time: 00 hr 07 min 11 sec)
Simulation complete CPU 0 instructions: 25000002 cycles: 34889912 cumulative IPC: 0.7165 (Simulation time: 00 hr 07 min 11 sec)

ChampSim completed all CPUs

=== Simulation ===
CPU 0 runs ./traces/sphinx3_883B.trace.xz
Region of Interest Statistics

CPU 0 cumulative IPC: 0.7165 instructions: 25000002 cycles: 34889912
CPU 0 Branch Prediction Accuracy: 93.21% MPKI: 6.577 Average ROB Occupancy at Mispredict: 170.2
Branch type MPKI
BRANCH_DIRECT_JUMP: 0.328
BRANCH_INDIRECT: 0
BRANCH_CONDITIONAL: 6.16
BRANCH_DIRECT_CALL: 0
BRANCH_INDIRECT_CALL: 0
BRANCH_RETURN: 0.0907

LLC TOTAL        ACCESS:     495508 HIT:      81449 MISS:     414059
LLC LOAD         ACCESS:     154239 HIT:      21295 MISS:     132944
LLC RFO          ACCESS:      20910 HIT:       3556 MISS:      17354
LLC PREFETCH     ACCESS:     279656 HIT:      19712 MISS:     259944
LLC WRITE        ACCESS:      34834 HIT:      34687 MISS:        147
LLC TRANSLATION  ACCESS:       5869 HIT:       2199 MISS:       3670
LLC PREFETCH REQUESTED:          0 ISSUED:          0 USEFUL:          0 USELESS:          0
LLC AVERAGE MISS LATENCY: 528.4 cycles
cpu0_DTLB TOTAL        ACCESS:    5109743 HIT:    4971798 MISS:     137945
cpu0_DTLB LOAD         ACCESS:    5109743 HIT:    4971798 MISS:     137945
cpu0_DTLB RFO          ACCESS:          0 HIT:          0 MISS:          0
cpu0_DTLB PREFETCH     ACCESS:          0 HIT:          0 MISS:          0
cpu0_DTLB WRITE        ACCESS:          0 HIT:          0 MISS:          0
cpu0_DTLB TRANSLATION  ACCESS:          0 HIT:          0 MISS:          0
cpu0_DTLB PREFETCH REQUESTED:          0 ISSUED:          0 USEFUL:          0 USELESS:          0
cpu0_DTLB AVERAGE MISS LATENCY: 12.23 cycles
cpu0_ITLB TOTAL        ACCESS:       2000 HIT:       2000 MISS:          0
cpu0_ITLB LOAD         ACCESS:       2000 HIT:       2000 MISS:          0
cpu0_ITLB RFO          ACCESS:          0 HIT:          0 MISS:          0
cpu0_ITLB PREFETCH     ACCESS:          0 HIT:          0 MISS:          0
cpu0_ITLB WRITE        ACCESS:          0 HIT:          0 MISS:          0
cpu0_ITLB TRANSLATION  ACCESS:          0 HIT:          0 MISS:          0
cpu0_ITLB PREFETCH REQUESTED:          0 ISSUED:          0 USEFUL:          0 USELESS:          0
cpu0_ITLB AVERAGE MISS LATENCY: -nan cycles
cpu0_L1D TOTAL        ACCESS:   10147078 HIT:    5082642 MISS:    5064436
cpu0_L1D LOAD         ACCESS:    5594044 HIT:    2782299 MISS:    2811745
cpu0_L1D RFO          ACCESS:          0 HIT:          0 MISS:          0
cpu0_L1D PREFETCH     ACCESS:    3892462 HIT:    1739978 MISS:    2152484
cpu0_L1D WRITE        ACCESS:     643618 HIT:     556142 MISS:      87476
cpu0_L1D TRANSLATION  ACCESS:      16954 HIT:       4223 MISS:      12731
cpu0_L1D PREFETCH REQUESTED:    5655311 ISSUED:    3892465 USEFUL:     211463 USELESS:      91065
cpu0_L1D AVERAGE MISS LATENCY: 26.8 cycles
cpu0_L1I TOTAL        ACCESS:       2282 HIT:       2282 MISS:          0
cpu0_L1I LOAD         ACCESS:       2282 HIT:       2282 MISS:          0
cpu0_L1I RFO          ACCESS:          0 HIT:          0 MISS:          0
cpu0_L1I PREFETCH     ACCESS:          0 HIT:          0 MISS:          0
cpu0_L1I WRITE        ACCESS:          0 HIT:          0 MISS:          0
cpu0_L1I TRANSLATION  ACCESS:          0 HIT:          0 MISS:          0
cpu0_L1I PREFETCH REQUESTED:          0 ISSUED:          0 USEFUL:          0 USELESS:          0
cpu0_L1I AVERAGE MISS LATENCY: -nan cycles
cpu0_L2C TOTAL        ACCESS:     751722 HIT:     266600 MISS:     485122
cpu0_L2C LOAD         ACCESS:     284243 HIT:     128667 MISS:     155576
cpu0_L2C RFO          ACCESS:      25408 HIT:       4498 MISS:      20910
cpu0_L2C PREFETCH     ACCESS:     387748 HIT:      85085 MISS:     302663
cpu0_L2C WRITE        ACCESS:      41746 HIT:      41642 MISS:        104
cpu0_L2C TRANSLATION  ACCESS:      12577 HIT:       6708 MISS:       5869
cpu0_L2C PREFETCH REQUESTED:      85220 ISSUED:      85220 USEFUL:      18415 USELESS:      31019
cpu0_L2C AVERAGE MISS LATENCY: 468 cycles
cpu0_STLB TOTAL        ACCESS:      48443 HIT:      31485 MISS:      16958
cpu0_STLB LOAD         ACCESS:      48443 HIT:      31485 MISS:      16958
cpu0_STLB RFO          ACCESS:          0 HIT:          0 MISS:          0
cpu0_STLB PREFETCH     ACCESS:          0 HIT:          0 MISS:          0
cpu0_STLB WRITE        ACCESS:          0 HIT:          0 MISS:          0
cpu0_STLB TRANSLATION  ACCESS:          0 HIT:          0 MISS:          0
cpu0_STLB PREFETCH REQUESTED:          0 ISSUED:          0 USEFUL:          0 USELESS:          0
cpu0_STLB AVERAGE MISS LATENCY: 132.4 cycles

DRAM Statistics

Channel 0 RQ ROW_BUFFER_HIT:     236964
  ROW_BUFFER_MISS:     176508
 AVG DBUS CONGESTED CYCLE: 3.898
WQ ROW_BUFFER_HIT: Channel 0 
  ROW_BUFFER_MISS:       2702
  FULL:      27638
