WARNING: physical memory size is smaller than virtual memory size.

*** ChampSim Multicore Out-of-Order Simulator ***
Warmup Instructions: 25000000
Simulation Instructions: 25000000
Number of CPUs: 1
Page size: 4096

Off-chip DRAM Size: 4 GiB Channels: 1 Width: 64-bit Data Race: 800 MT/s
Heartbeat CPU 0 instructions: 10000003 cycles: 2534952 heartbeat IPC: 3.945 cumulative IPC: 3.945 (Simulation time: 00 hr 00 min 41 sec)
Heartbeat CPU 0 instructions: 20000000 cycles: 5092094 heartbeat IPC: 3.911 cumulative IPC: 3.928 (Simulation time: 00 hr 01 min 20 sec)
Warmup finished CPU 0 instructions: 25000003 cycles: 6369140 cumulative IPC: 3.925 (Simulation time: 00 hr 01 min 39 sec)
Warmup complete CPU 0 instructions: 25000003 cycles: 6369140 cumulative IPC: 3.925 (Simulation time: 00 hr 01 min 39 sec)
Heartbeat CPU 0 instructions: 30000003 cycles: 11029083 heartbeat IPC: 1.684 cumulative IPC: 1.073 (Simulation time: 00 hr 02 min 31 sec)
Heartbeat CPU 0 instructions: 40000002 cycles: 21846109 heartbeat IPC: 0.9245 cumulative IPC: 0.9692 (Simulation time: 00 hr 04 min 25 sec)
Heartbeat CPU 0 instructions: 50000000 cycles: 32642183 heartbeat IPC: 0.9263 cumulative IPC: 0.9515 (Simulation time: 00 hr 06 min 19 sec)
Simulation finished CPU 0 instructions: 25000001 cycles: 26273045 cumulative IPC: 0.9515 (Simulation time: 00 hr 06 min 19 sec)
Simulation complete CPU 0 instructions: 25000001 cycles: 26273045 cumulative IPC: 0.9515 (Simulation time: 00 hr 06 min 19 sec)

ChampSim completed all CPUs

=== Simulation ===
CPU 0 runs ./traces/sphinx3_1339B.trace.xz
Region of Interest Statistics

CPU 0 cumulative IPC: 0.9515 instructions: 25000001 cycles: 26273045
CPU 0 Branch Prediction Accuracy: 95.31% MPKI: 4.089 Average ROB Occupancy at Mispredict: 253.2
Branch type MPKI
BRANCH_DIRECT_JUMP: 0.0916
BRANCH_INDIRECT: 0
BRANCH_CONDITIONAL: 3.94
BRANCH_DIRECT_CALL: 0
BRANCH_INDIRECT_CALL: 0
BRANCH_RETURN: 0.0544

LLC TOTAL        ACCESS:     396535 HIT:      63904 MISS:     332631
LLC LOAD         ACCESS:      69446 HIT:      11239 MISS:      58207
LLC RFO          ACCESS:      27403 HIT:       6926 MISS:      20477
LLC PREFETCH     ACCESS:     263639 HIT:      12188 MISS:     251451
LLC WRITE        ACCESS:      33168 HIT:      33122 MISS:         46
LLC TRANSLATION  ACCESS:       2879 HIT:        429 MISS:       2450
LLC PREFETCH REQUESTED:          0 ISSUED:          0 USEFUL:          0 USELESS:          0
LLC AVERAGE MISS LATENCY: 481.4 cycles
cpu0_DTLB TOTAL        ACCESS:    4861784 HIT:    4800246 MISS:      61538
cpu0_DTLB LOAD         ACCESS:    4861784 HIT:    4800246 MISS:      61538
cpu0_DTLB RFO          ACCESS:          0 HIT:          0 MISS:          0
cpu0_DTLB PREFETCH     ACCESS:          0 HIT:          0 MISS:          0
cpu0_DTLB WRITE        ACCESS:          0 HIT:          0 MISS:          0
cpu0_DTLB TRANSLATION  ACCESS:          0 HIT:          0 MISS:          0
cpu0_DTLB PREFETCH REQUESTED:          0 ISSUED:          0 USEFUL:          0 USELESS:          0
cpu0_DTLB AVERAGE MISS LATENCY: 20.93 cycles
cpu0_ITLB TOTAL        ACCESS:       2949 HIT:       2949 MISS:          0
cpu0_ITLB LOAD         ACCESS:       2949 HIT:       2949 MISS:          0
cpu0_ITLB RFO          ACCESS:          0 HIT:          0 MISS:          0
cpu0_ITLB PREFETCH     ACCESS:          0 HIT:          0 MISS:          0
cpu0_ITLB WRITE        ACCESS:          0 HIT:          0 MISS:          0
cpu0_ITLB TRANSLATION  ACCESS:          0 HIT:          0 MISS:          0
cpu0_ITLB PREFETCH REQUESTED:          0 ISSUED:          0 USEFUL:          0 USELESS:          0
cpu0_ITLB AVERAGE MISS LATENCY: -nan cycles
cpu0_L1D TOTAL        ACCESS:   10126832 HIT:    4379644 MISS:    5747188
cpu0_L1D LOAD         ACCESS:    5447293 HIT:    2469407 MISS:    2977886
cpu0_L1D RFO          ACCESS:          0 HIT:          0 MISS:          0
cpu0_L1D PREFETCH     ACCESS:    4299528 HIT:    1661854 MISS:    2637674
cpu0_L1D WRITE        ACCESS:     373162 HIT:     246283 MISS:     126879
cpu0_L1D TRANSLATION  ACCESS:       6849 HIT:       2100 MISS:       4749
cpu0_L1D PREFETCH REQUESTED:    5519023 ISSUED:    4299534 USEFUL:     250659 USELESS:      30233
cpu0_L1D AVERAGE MISS LATENCY: 14.63 cycles
cpu0_L1I TOTAL        ACCESS:       3348 HIT:       3309 MISS:         39
cpu0_L1I LOAD         ACCESS:       3348 HIT:       3309 MISS:         39
cpu0_L1I RFO          ACCESS:          0 HIT:          0 MISS:          0
cpu0_L1I PREFETCH     ACCESS:          0 HIT:          0 MISS:          0
cpu0_L1I WRITE        ACCESS:          0 HIT:          0 MISS:          0
cpu0_L1I TRANSLATION  ACCESS:          0 HIT:          0 MISS:          0
cpu0_L1I PREFETCH REQUESTED:          0 ISSUED:          0 USEFUL:          0 USELESS:          0
cpu0_L1I AVERAGE MISS LATENCY: 141.5 cycles
cpu0_L2C TOTAL        ACCESS:     525131 HIT:     152570 MISS:     372561
cpu0_L2C LOAD         ACCESS:     104883 HIT:      34919 MISS:      69964
cpu0_L2C RFO          ACCESS:      29212 HIT:       1809 MISS:      27403
cpu0_L2C PREFETCH     ACCESS:     353260 HIT:      81076 MISS:     272184
cpu0_L2C WRITE        ACCESS:      33184 HIT:      33053 MISS:        131
cpu0_L2C TRANSLATION  ACCESS:       4592 HIT:       1713 MISS:       2879
cpu0_L2C PREFETCH REQUESTED:      72368 ISSUED:      72368 USEFUL:       8843 USELESS:      10456
cpu0_L2C AVERAGE MISS LATENCY: 448.9 cycles
cpu0_STLB TOTAL        ACCESS:      22100 HIT:      15247 MISS:       6853
cpu0_STLB LOAD         ACCESS:      22100 HIT:      15247 MISS:       6853
cpu0_STLB RFO          ACCESS:          0 HIT:          0 MISS:          0
cpu0_STLB PREFETCH     ACCESS:          0 HIT:          0 MISS:          0
cpu0_STLB WRITE        ACCESS:          0 HIT:          0 MISS:          0
cpu0_STLB TRANSLATION  ACCESS:          0 HIT:          0 MISS:          0
cpu0_STLB PREFETCH REQUESTED:          0 ISSUED:          0 USEFUL:          0 USELESS:          0
cpu0_STLB AVERAGE MISS LATENCY: 241.5 cycles

DRAM Statistics

Channel 0 RQ ROW_BUFFER_HIT:     228297
  ROW_BUFFER_MISS:     103920
 AVG DBUS CONGESTED CYCLE: 3.918
WQ ROW_BUFFER_HIT: Channel 0 
  ROW_BUFFER_MISS:       3060
  FULL:      20599
