WARNING: physical memory size is smaller than virtual memory size.

*** ChampSim Multicore Out-of-Order Simulator ***
Warmup Instructions: 25000000
Simulation Instructions: 25000000
Number of CPUs: 1
Page size: 4096

Off-chip DRAM Size: 4 GiB Channels: 1 Width: 64-bit Data Race: 800 MT/s
Heartbeat CPU 0 instructions: 10000000 cycles: 2501836 heartbeat IPC: 3.997 cumulative IPC: 3.997 (Simulation time: 00 hr 00 min 39 sec)
Heartbeat CPU 0 instructions: 20000000 cycles: 5004592 heartbeat IPC: 3.996 cumulative IPC: 3.996 (Simulation time: 00 hr 01 min 17 sec)
Warmup finished CPU 0 instructions: 25000002 cycles: 6255966 cumulative IPC: 3.996 (Simulation time: 00 hr 01 min 37 sec)
Warmup complete CPU 0 instructions: 25000002 cycles: 6255966 cumulative IPC: 3.996 (Simulation time: 00 hr 01 min 37 sec)
Heartbeat CPU 0 instructions: 30000002 cycles: 8047754 heartbeat IPC: 3.286 cumulative IPC: 2.791 (Simulation time: 00 hr 02 min 02 sec)
Heartbeat CPU 0 instructions: 40000001 cycles: 11733237 heartbeat IPC: 2.713 cumulative IPC: 2.739 (Simulation time: 00 hr 02 min 54 sec)
Heartbeat CPU 0 instructions: 50000000 cycles: 18624862 heartbeat IPC: 1.451 cumulative IPC: 2.021 (Simulation time: 00 hr 04 min 08 sec)
Simulation finished CPU 0 instructions: 25000002 cycles: 12368898 cumulative IPC: 2.021 (Simulation time: 00 hr 04 min 08 sec)
Simulation complete CPU 0 instructions: 25000002 cycles: 12368898 cumulative IPC: 2.021 (Simulation time: 00 hr 04 min 08 sec)

ChampSim completed all CPUs

=== Simulation ===
CPU 0 runs ./traces/tonto_422B.trace.xz
Region of Interest Statistics

CPU 0 cumulative IPC: 2.021 instructions: 25000002 cycles: 12368898
CPU 0 Branch Prediction Accuracy: 94.53% MPKI: 6.23 Average ROB Occupancy at Mispredict: 68.18
Branch type MPKI
BRANCH_DIRECT_JUMP: 0.0016
BRANCH_INDIRECT: 0.0002
BRANCH_CONDITIONAL: 5.18
BRANCH_DIRECT_CALL: 0.00444
BRANCH_INDIRECT_CALL: 0
BRANCH_RETURN: 1.04

LLC TOTAL        ACCESS:     142430 HIT:      96615 MISS:      45815
LLC LOAD         ACCESS:       2975 HIT:       1989 MISS:        986
LLC RFO          ACCESS:      53874 HIT:      14152 MISS:      39722
LLC PREFETCH     ACCESS:      31483 HIT:      26434 MISS:       5049
LLC WRITE        ACCESS:      54025 HIT:      54025 MISS:          0
LLC TRANSLATION  ACCESS:         73 HIT:         15 MISS:         58
LLC PREFETCH REQUESTED:          0 ISSUED:          0 USEFUL:          0 USELESS:          0
LLC AVERAGE MISS LATENCY: 1091 cycles
cpu0_DTLB TOTAL        ACCESS:    3634031 HIT:    3617121 MISS:      16910
cpu0_DTLB LOAD         ACCESS:    3634031 HIT:    3617121 MISS:      16910
cpu0_DTLB RFO          ACCESS:          0 HIT:          0 MISS:          0
cpu0_DTLB PREFETCH     ACCESS:          0 HIT:          0 MISS:          0
cpu0_DTLB WRITE        ACCESS:          0 HIT:          0 MISS:          0
cpu0_DTLB TRANSLATION  ACCESS:          0 HIT:          0 MISS:          0
cpu0_DTLB PREFETCH REQUESTED:          0 ISSUED:          0 USEFUL:          0 USELESS:          0
cpu0_DTLB AVERAGE MISS LATENCY: 10.19 cycles
cpu0_ITLB TOTAL        ACCESS:    1281836 HIT:    1281754 MISS:         82
cpu0_ITLB LOAD         ACCESS:    1281836 HIT:    1281754 MISS:         82
cpu0_ITLB RFO          ACCESS:          0 HIT:          0 MISS:          0
cpu0_ITLB PREFETCH     ACCESS:          0 HIT:          0 MISS:          0
cpu0_ITLB WRITE        ACCESS:          0 HIT:          0 MISS:          0
cpu0_ITLB TRANSLATION  ACCESS:          0 HIT:          0 MISS:          0
cpu0_ITLB PREFETCH REQUESTED:          0 ISSUED:          0 USEFUL:          0 USELESS:          0
cpu0_ITLB AVERAGE MISS LATENCY: 135.9 cycles
cpu0_L1D TOTAL        ACCESS:    6969124 HIT:    6395420 MISS:     573704
cpu0_L1D LOAD         ACCESS:    2422026 HIT:    2365786 MISS:      56240
cpu0_L1D RFO          ACCESS:          0 HIT:          0 MISS:          0
cpu0_L1D PREFETCH     ACCESS:    2265801 HIT:    2144057 MISS:     121744
cpu0_L1D WRITE        ACCESS:    2280635 HIT:    1885021 MISS:     395614
cpu0_L1D TRANSLATION  ACCESS:        662 HIT:        556 MISS:        106
cpu0_L1D PREFETCH REQUESTED:    2841871 ISSUED:    2265803 USEFUL:      49466 USELESS:       5066
cpu0_L1D AVERAGE MISS LATENCY: 79.02 cycles
cpu0_L1I TOTAL        ACCESS:    1563801 HIT:    1562816 MISS:        985
cpu0_L1I LOAD         ACCESS:    1563801 HIT:    1562816 MISS:        985
cpu0_L1I RFO          ACCESS:          0 HIT:          0 MISS:          0
cpu0_L1I PREFETCH     ACCESS:          0 HIT:          0 MISS:          0
cpu0_L1I WRITE        ACCESS:          0 HIT:          0 MISS:          0
cpu0_L1I TRANSLATION  ACCESS:          0 HIT:          0 MISS:          0
cpu0_L1I PREFETCH REQUESTED:          0 ISSUED:          0 USEFUL:          0 USELESS:          0
cpu0_L1I AVERAGE MISS LATENCY: 249.8 cycles
cpu0_L2C TOTAL        ACCESS:     268458 HIT:     168174 MISS:     100284
cpu0_L2C LOAD         ACCESS:      21873 HIT:      16830 MISS:       5043
cpu0_L2C RFO          ACCESS:      57902 HIT:       4028 MISS:      53874
cpu0_L2C PREFETCH     ACCESS:     121006 HIT:      79730 MISS:      41276
cpu0_L2C WRITE        ACCESS:      67572 HIT:      67554 MISS:         18
cpu0_L2C TRANSLATION  ACCESS:        105 HIT:         32 MISS:         73
cpu0_L2C PREFETCH REQUESTED:      66564 ISSUED:      66564 USEFUL:       7015 USELESS:        595
cpu0_L2C AVERAGE MISS LATENCY: 515.1 cycles
cpu0_STLB TOTAL        ACCESS:       9226 HIT:       8566 MISS:        660
cpu0_STLB LOAD         ACCESS:       9226 HIT:       8566 MISS:        660
cpu0_STLB RFO          ACCESS:          0 HIT:          0 MISS:          0
cpu0_STLB PREFETCH     ACCESS:          0 HIT:          0 MISS:          0
cpu0_STLB WRITE        ACCESS:          0 HIT:          0 MISS:          0
cpu0_STLB TRANSLATION  ACCESS:          0 HIT:          0 MISS:          0
cpu0_STLB PREFETCH REQUESTED:          0 ISSUED:          0 USEFUL:          0 USELESS:          0
cpu0_STLB AVERAGE MISS LATENCY: 256.8 cycles

DRAM Statistics

Channel 0 RQ ROW_BUFFER_HIT:      22463
  ROW_BUFFER_MISS:      23179
 AVG DBUS CONGESTED CYCLE: 3.956
WQ ROW_BUFFER_HIT: Channel 0 
  ROW_BUFFER_MISS:       4274
  FULL:      23041
