WARNING: physical memory size is smaller than virtual memory size.

*** ChampSim Multicore Out-of-Order Simulator ***
Warmup Instructions: 25000000
Simulation Instructions: 25000000
Number of CPUs: 1
Page size: 4096

Off-chip DRAM Size: 4 GiB Channels: 1 Width: 64-bit Data Race: 800 MT/s
Heartbeat CPU 0 instructions: 10000000 cycles: 2500123 heartbeat IPC: 4 cumulative IPC: 4 (Simulation time: 00 hr 00 min 38 sec)
Heartbeat CPU 0 instructions: 20000000 cycles: 5000123 heartbeat IPC: 4 cumulative IPC: 4 (Simulation time: 00 hr 01 min 16 sec)
Warmup finished CPU 0 instructions: 25000000 cycles: 6250124 cumulative IPC: 4 (Simulation time: 00 hr 01 min 35 sec)
Warmup complete CPU 0 instructions: 25000000 cycles: 6250124 cumulative IPC: 4 (Simulation time: 00 hr 01 min 35 sec)
Heartbeat CPU 0 instructions: 30000002 cycles: 8163199 heartbeat IPC: 3.161 cumulative IPC: 2.614 (Simulation time: 00 hr 02 min 02 sec)
Heartbeat CPU 0 instructions: 40000001 cycles: 11987895 heartbeat IPC: 2.615 cumulative IPC: 2.614 (Simulation time: 00 hr 02 min 55 sec)
Heartbeat CPU 0 instructions: 50000000 cycles: 29049849 heartbeat IPC: 0.5861 cumulative IPC: 1.097 (Simulation time: 00 hr 05 min 45 sec)
Simulation finished CPU 0 instructions: 25000000 cycles: 22799726 cumulative IPC: 1.097 (Simulation time: 00 hr 05 min 45 sec)
Simulation complete CPU 0 instructions: 25000000 cycles: 22799726 cumulative IPC: 1.097 (Simulation time: 00 hr 05 min 45 sec)

ChampSim completed all CPUs

=== Simulation ===
CPU 0 runs ./traces/wrf_1650B.trace.xz
Region of Interest Statistics

CPU 0 cumulative IPC: 1.097 instructions: 25000000 cycles: 22799726
CPU 0 Branch Prediction Accuracy: 99.25% MPKI: 0.8252 Average ROB Occupancy at Mispredict: 320.3
Branch type MPKI
BRANCH_DIRECT_JUMP: 0.00136
BRANCH_INDIRECT: 0
BRANCH_CONDITIONAL: 0.823
BRANCH_DIRECT_CALL: 0.00052
BRANCH_INDIRECT_CALL: 0
BRANCH_RETURN: 0.00048

LLC TOTAL        ACCESS:     323716 HIT:     111736 MISS:     211980
LLC LOAD         ACCESS:      42161 HIT:       6910 MISS:      35251
LLC RFO          ACCESS:      72561 HIT:       1031 MISS:      71530
LLC PREFETCH     ACCESS:     111818 HIT:       6878 MISS:     104940
LLC WRITE        ACCESS:      96880 HIT:      96868 MISS:         12
LLC TRANSLATION  ACCESS:        296 HIT:         49 MISS:        247
LLC PREFETCH REQUESTED:          0 ISSUED:          0 USEFUL:          0 USELESS:          0
LLC AVERAGE MISS LATENCY: 1062 cycles
cpu0_DTLB TOTAL        ACCESS:    4443950 HIT:    4399997 MISS:      43953
cpu0_DTLB LOAD         ACCESS:    4443950 HIT:    4399997 MISS:      43953
cpu0_DTLB RFO          ACCESS:          0 HIT:          0 MISS:          0
cpu0_DTLB PREFETCH     ACCESS:          0 HIT:          0 MISS:          0
cpu0_DTLB WRITE        ACCESS:          0 HIT:          0 MISS:          0
cpu0_DTLB TRANSLATION  ACCESS:          0 HIT:          0 MISS:          0
cpu0_DTLB PREFETCH REQUESTED:          0 ISSUED:          0 USEFUL:          0 USELESS:          0
cpu0_DTLB AVERAGE MISS LATENCY: 35.92 cycles
cpu0_ITLB TOTAL        ACCESS:        508 HIT:        441 MISS:         67
cpu0_ITLB LOAD         ACCESS:        508 HIT:        441 MISS:         67
cpu0_ITLB RFO          ACCESS:          0 HIT:          0 MISS:          0
cpu0_ITLB PREFETCH     ACCESS:          0 HIT:          0 MISS:          0
cpu0_ITLB WRITE        ACCESS:          0 HIT:          0 MISS:          0
cpu0_ITLB TRANSLATION  ACCESS:          0 HIT:          0 MISS:          0
cpu0_ITLB PREFETCH REQUESTED:          0 ISSUED:          0 USEFUL:          0 USELESS:          0
cpu0_ITLB AVERAGE MISS LATENCY: 207.5 cycles
cpu0_L1D TOTAL        ACCESS:    8642131 HIT:    7687114 MISS:     955017
cpu0_L1D LOAD         ACCESS:    4185242 HIT:    3930746 MISS:     254496
cpu0_L1D RFO          ACCESS:          0 HIT:          0 MISS:          0
cpu0_L1D PREFETCH     ACCESS:    3289069 HIT:    3102599 MISS:     186470
cpu0_L1D WRITE        ACCESS:    1163292 HIT:     650045 MISS:     513247
cpu0_L1D TRANSLATION  ACCESS:       4528 HIT:       3724 MISS:        804
cpu0_L1D PREFETCH REQUESTED:    6789208 ISSUED:    3289069 USEFUL:      58176 USELESS:       5051
cpu0_L1D AVERAGE MISS LATENCY: 182.4 cycles
cpu0_L1I TOTAL        ACCESS:        628 HIT:        116 MISS:        512
cpu0_L1I LOAD         ACCESS:        628 HIT:        116 MISS:        512
cpu0_L1I RFO          ACCESS:          0 HIT:          0 MISS:          0
cpu0_L1I PREFETCH     ACCESS:          0 HIT:          0 MISS:          0
cpu0_L1I WRITE        ACCESS:          0 HIT:          0 MISS:          0
cpu0_L1I TRANSLATION  ACCESS:          0 HIT:          0 MISS:          0
cpu0_L1I PREFETCH REQUESTED:          0 ISSUED:          0 USEFUL:          0 USELESS:          0
cpu0_L1I AVERAGE MISS LATENCY: 396.2 cycles
cpu0_L2C TOTAL        ACCESS:     415564 HIT:     125090 MISS:     290474
cpu0_L2C LOAD         ACCESS:      64924 HIT:       9628 MISS:      55296
cpu0_L2C RFO          ACCESS:      73533 HIT:        970 MISS:      72563
cpu0_L2C PREFETCH     ACCESS:     175323 HIT:      13016 MISS:     162307
cpu0_L2C WRITE        ACCESS:     100987 HIT:     100975 MISS:         12
cpu0_L2C TRANSLATION  ACCESS:        797 HIT:        501 MISS:        296
cpu0_L2C PREFETCH REQUESTED:     112455 ISSUED:     112115 USEFUL:      18797 USELESS:      20859
cpu0_L2C AVERAGE MISS LATENCY: 701.2 cycles
cpu0_STLB TOTAL        ACCESS:      16273 HIT:      11770 MISS:       4503
cpu0_STLB LOAD         ACCESS:      16273 HIT:      11770 MISS:       4503
cpu0_STLB RFO          ACCESS:          0 HIT:          0 MISS:          0
cpu0_STLB PREFETCH     ACCESS:          0 HIT:          0 MISS:          0
cpu0_STLB WRITE        ACCESS:          0 HIT:          0 MISS:          0
cpu0_STLB TRANSLATION  ACCESS:          0 HIT:          0 MISS:          0
cpu0_STLB PREFETCH REQUESTED:          0 ISSUED:          0 USEFUL:          0 USELESS:          0
cpu0_STLB AVERAGE MISS LATENCY: 432.2 cycles

DRAM Statistics

Channel 0 RQ ROW_BUFFER_HIT:      55587
  ROW_BUFFER_MISS:     135993
 AVG DBUS CONGESTED CYCLE: 3.945
WQ ROW_BUFFER_HIT: Channel 0 
  ROW_BUFFER_MISS:      11469
  FULL:      73533
