WARNING: physical memory size is smaller than virtual memory size.

*** ChampSim Multicore Out-of-Order Simulator ***
Warmup Instructions: 25000000
Simulation Instructions: 25000000
Number of CPUs: 1
Page size: 4096

Off-chip DRAM Size: 4 GiB Channels: 1 Width: 64-bit Data Race: 800 MT/s
Heartbeat CPU 0 instructions: 10000001 cycles: 2506154 heartbeat IPC: 3.99 cumulative IPC: 3.99 (Simulation time: 00 hr 00 min 42 sec)
Heartbeat CPU 0 instructions: 20000003 cycles: 5012357 heartbeat IPC: 3.99 cumulative IPC: 3.99 (Simulation time: 00 hr 01 min 24 sec)
Warmup finished CPU 0 instructions: 25000000 cycles: 6264805 cumulative IPC: 3.991 (Simulation time: 00 hr 01 min 44 sec)
Warmup complete CPU 0 instructions: 25000000 cycles: 6264805 cumulative IPC: 3.991 (Simulation time: 00 hr 01 min 44 sec)
Heartbeat CPU 0 instructions: 30000002 cycles: 22049102 heartbeat IPC: 0.587 cumulative IPC: 0.3168 (Simulation time: 00 hr 03 min 24 sec)
Heartbeat CPU 0 instructions: 40000002 cycles: 49638296 heartbeat IPC: 0.3625 cumulative IPC: 0.3458 (Simulation time: 00 hr 05 min 39 sec)
Heartbeat CPU 0 instructions: 50000000 cycles: 79563338 heartbeat IPC: 0.3342 cumulative IPC: 0.3411 (Simulation time: 00 hr 07 min 33 sec)
Simulation finished CPU 0 instructions: 25000000 cycles: 73298534 cumulative IPC: 0.3411 (Simulation time: 00 hr 07 min 33 sec)
Simulation complete CPU 0 instructions: 25000000 cycles: 73298534 cumulative IPC: 0.3411 (Simulation time: 00 hr 07 min 33 sec)

ChampSim completed all CPUs

=== Simulation ===
CPU 0 runs ./traces/xalancbmk_99B.trace.xz
Region of Interest Statistics

CPU 0 cumulative IPC: 0.3411 instructions: 25000000 cycles: 73298534
CPU 0 Branch Prediction Accuracy: 95.11% MPKI: 14.78 Average ROB Occupancy at Mispredict: 38.78
Branch type MPKI
BRANCH_DIRECT_JUMP: 0.0138
BRANCH_INDIRECT: 0.0082
BRANCH_CONDITIONAL: 14.7
BRANCH_DIRECT_CALL: 0.00048
BRANCH_INDIRECT_CALL: 0.0352
BRANCH_RETURN: 0.0535

LLC TOTAL        ACCESS:    1115489 HIT:      35986 MISS:    1079503
LLC LOAD         ACCESS:     694622 HIT:      15351 MISS:     679271
LLC RFO          ACCESS:       1406 HIT:        163 MISS:       1243
LLC PREFETCH     ACCESS:     365047 HIT:       9582 MISS:     355465
LLC WRITE        ACCESS:       4606 HIT:       4516 MISS:         90
LLC TRANSLATION  ACCESS:      49808 HIT:       6374 MISS:      43434
LLC PREFETCH REQUESTED:          0 ISSUED:          0 USEFUL:          0 USELESS:          0
LLC AVERAGE MISS LATENCY: 334.5 cycles
cpu0_DTLB TOTAL        ACCESS:    5769074 HIT:    5321728 MISS:     447346
cpu0_DTLB LOAD         ACCESS:    5769074 HIT:    5321728 MISS:     447346
cpu0_DTLB RFO          ACCESS:          0 HIT:          0 MISS:          0
cpu0_DTLB PREFETCH     ACCESS:          0 HIT:          0 MISS:          0
cpu0_DTLB WRITE        ACCESS:          0 HIT:          0 MISS:          0
cpu0_DTLB TRANSLATION  ACCESS:          0 HIT:          0 MISS:          0
cpu0_DTLB PREFETCH REQUESTED:          0 ISSUED:          0 USEFUL:          0 USELESS:          0
cpu0_DTLB AVERAGE MISS LATENCY: 61.32 cycles
cpu0_ITLB TOTAL        ACCESS:     101157 HIT:      85590 MISS:      15567
cpu0_ITLB LOAD         ACCESS:     101157 HIT:      85590 MISS:      15567
cpu0_ITLB RFO          ACCESS:          0 HIT:          0 MISS:          0
cpu0_ITLB PREFETCH     ACCESS:          0 HIT:          0 MISS:          0
cpu0_ITLB WRITE        ACCESS:          0 HIT:          0 MISS:          0
cpu0_ITLB TRANSLATION  ACCESS:          0 HIT:          0 MISS:          0
cpu0_ITLB PREFETCH REQUESTED:          0 ISSUED:          0 USEFUL:          0 USELESS:          0
cpu0_ITLB AVERAGE MISS LATENCY: 31.11 cycles
cpu0_L1D TOTAL        ACCESS:   12474568 HIT:    9669994 MISS:    2804574
cpu0_L1D LOAD         ACCESS:    6652794 HIT:    5156780 MISS:    1496014
cpu0_L1D RFO          ACCESS:          0 HIT:          0 MISS:          0
cpu0_L1D PREFETCH     ACCESS:    5241488 HIT:    4021668 MISS:    1219820
cpu0_L1D WRITE        ACCESS:     465723 HIT:     454839 MISS:      10884
cpu0_L1D TRANSLATION  ACCESS:     114563 HIT:      36707 MISS:      77856
cpu0_L1D PREFETCH REQUESTED:    7192340 ISSUED:    5241482 USEFUL:      79832 USELESS:     250006
cpu0_L1D AVERAGE MISS LATENCY: 130.2 cycles
cpu0_L1I TOTAL        ACCESS:     112628 HIT:      73866 MISS:      38762
cpu0_L1I LOAD         ACCESS:     112628 HIT:      73866 MISS:      38762
cpu0_L1I RFO          ACCESS:          0 HIT:          0 MISS:          0
cpu0_L1I PREFETCH     ACCESS:          0 HIT:          0 MISS:          0
cpu0_L1I WRITE        ACCESS:          0 HIT:          0 MISS:          0
cpu0_L1I TRANSLATION  ACCESS:          0 HIT:          0 MISS:          0
cpu0_L1I PREFETCH REQUESTED:          0 ISSUED:          0 USEFUL:          0 USELESS:          0
cpu0_L1I AVERAGE MISS LATENCY: 103.7 cycles
cpu0_L2C TOTAL        ACCESS:    1259815 HIT:     137922 MISS:    1121893
cpu0_L2C LOAD         ACCESS:     758154 HIT:      57932 MISS:     700222
cpu0_L2C RFO          ACCESS:       4530 HIT:       3121 MISS:       1409
cpu0_L2C PREFETCH     ACCESS:     403906 HIT:      33552 MISS:     370354
cpu0_L2C WRITE        ACCESS:      15743 HIT:      15643 MISS:        100
cpu0_L2C TRANSLATION  ACCESS:      77482 HIT:      27674 MISS:      49808
cpu0_L2C PREFETCH REQUESTED:      74031 ISSUED:      74031 USEFUL:      31599 USELESS:      26907
cpu0_L2C AVERAGE MISS LATENCY: 340.2 cycles
cpu0_STLB TOTAL        ACCESS:     140383 HIT:      34411 MISS:     105972
cpu0_STLB LOAD         ACCESS:     140383 HIT:      34411 MISS:     105972
cpu0_STLB RFO          ACCESS:          0 HIT:          0 MISS:          0
cpu0_STLB PREFETCH     ACCESS:          0 HIT:          0 MISS:          0
cpu0_STLB WRITE        ACCESS:          0 HIT:          0 MISS:          0
cpu0_STLB TRANSLATION  ACCESS:          0 HIT:          0 MISS:          0
cpu0_STLB PREFETCH REQUESTED:          0 ISSUED:          0 USEFUL:          0 USELESS:          0
cpu0_STLB AVERAGE MISS LATENCY: 262 cycles

DRAM Statistics

Channel 0 RQ ROW_BUFFER_HIT:     588103
  ROW_BUFFER_MISS:     490839
 AVG DBUS CONGESTED CYCLE: 3.894
WQ ROW_BUFFER_HIT: Channel 0 
  ROW_BUFFER_MISS:        749
  FULL:       3314
