WARNING: physical memory size is smaller than virtual memory size.

*** ChampSim Multicore Out-of-Order Simulator ***
Warmup Instructions: 25000000
Simulation Instructions: 25000000
Number of CPUs: 1
Page size: 4096

Off-chip DRAM Size: 4 GiB Channels: 1 Width: 64-bit Data Race: 800 MT/s
Heartbeat CPU 0 instructions: 10000002 cycles: 2515761 heartbeat IPC: 3.975 cumulative IPC: 3.975 (Simulation time: 00 hr 00 min 42 sec)
Heartbeat CPU 0 instructions: 20000003 cycles: 5028215 heartbeat IPC: 3.98 cumulative IPC: 3.978 (Simulation time: 00 hr 01 min 26 sec)
Warmup finished CPU 0 instructions: 25000003 cycles: 6297090 cumulative IPC: 3.97 (Simulation time: 00 hr 01 min 47 sec)
Warmup complete CPU 0 instructions: 25000003 cycles: 6297090 cumulative IPC: 3.97 (Simulation time: 00 hr 01 min 47 sec)
Heartbeat CPU 0 instructions: 30000002 cycles: 11154753 heartbeat IPC: 1.632 cumulative IPC: 1.029 (Simulation time: 00 hr 02 min 34 sec)
Heartbeat CPU 0 instructions: 40000000 cycles: 21469890 heartbeat IPC: 0.9694 cumulative IPC: 0.9886 (Simulation time: 00 hr 04 min 15 sec)
Heartbeat CPU 0 instructions: 50000000 cycles: 30137297 heartbeat IPC: 1.154 cumulative IPC: 1.049 (Simulation time: 00 hr 05 min 37 sec)
Simulation finished CPU 0 instructions: 25000001 cycles: 23840210 cumulative IPC: 1.049 (Simulation time: 00 hr 05 min 37 sec)
Simulation complete CPU 0 instructions: 25000001 cycles: 23840210 cumulative IPC: 1.049 (Simulation time: 00 hr 05 min 37 sec)

ChampSim completed all CPUs

=== Simulation ===
CPU 0 runs ./traces/xalancbmk_748B.trace.xz
Region of Interest Statistics

CPU 0 cumulative IPC: 1.049 instructions: 25000001 cycles: 23840210
CPU 0 Branch Prediction Accuracy: 92.89% MPKI: 19.42 Average ROB Occupancy at Mispredict: 21.23
Branch type MPKI
BRANCH_DIRECT_JUMP: 0.00308
BRANCH_INDIRECT: 0.491
BRANCH_CONDITIONAL: 14.7
BRANCH_DIRECT_CALL: 0.125
BRANCH_INDIRECT_CALL: 0.732
BRANCH_RETURN: 3.33

LLC TOTAL        ACCESS:     260392 HIT:     153471 MISS:     106921
LLC LOAD         ACCESS:      43061 HIT:      28021 MISS:      15040
LLC RFO          ACCESS:      60695 HIT:       4278 MISS:      56417
LLC PREFETCH     ACCESS:      44073 HIT:      21615 MISS:      22458
LLC WRITE        ACCESS:      89737 HIT:      89724 MISS:         13
LLC TRANSLATION  ACCESS:      22826 HIT:       9833 MISS:      12993
LLC PREFETCH REQUESTED:          0 ISSUED:          0 USEFUL:          0 USELESS:          0
LLC AVERAGE MISS LATENCY: 434.5 cycles
cpu0_DTLB TOTAL        ACCESS:    7501022 HIT:    7078422 MISS:     422600
cpu0_DTLB LOAD         ACCESS:    7501022 HIT:    7078422 MISS:     422600
cpu0_DTLB RFO          ACCESS:          0 HIT:          0 MISS:          0
cpu0_DTLB PREFETCH     ACCESS:          0 HIT:          0 MISS:          0
cpu0_DTLB WRITE        ACCESS:          0 HIT:          0 MISS:          0
cpu0_DTLB TRANSLATION  ACCESS:          0 HIT:          0 MISS:          0
cpu0_DTLB PREFETCH REQUESTED:          0 ISSUED:          0 USEFUL:          0 USELESS:          0
cpu0_DTLB AVERAGE MISS LATENCY: 22.8 cycles
cpu0_ITLB TOTAL        ACCESS:    1767361 HIT:    1690079 MISS:      77282
cpu0_ITLB LOAD         ACCESS:    1767361 HIT:    1690079 MISS:      77282
cpu0_ITLB RFO          ACCESS:          0 HIT:          0 MISS:          0
cpu0_ITLB PREFETCH     ACCESS:          0 HIT:          0 MISS:          0
cpu0_ITLB WRITE        ACCESS:          0 HIT:          0 MISS:          0
cpu0_ITLB TRANSLATION  ACCESS:          0 HIT:          0 MISS:          0
cpu0_ITLB PREFETCH REQUESTED:          0 ISSUED:          0 USEFUL:          0 USELESS:          0
cpu0_ITLB AVERAGE MISS LATENCY: 3.817 cycles
cpu0_L1D TOTAL        ACCESS:   14057380 HIT:   11156136 MISS:    2901244
cpu0_L1D LOAD         ACCESS:    5633744 HIT:    4353782 MISS:    1279962
cpu0_L1D RFO          ACCESS:          0 HIT:          0 MISS:          0
cpu0_L1D PREFETCH     ACCESS:    5019519 HIT:    3735696 MISS:    1283823
cpu0_L1D WRITE        ACCESS:    3368733 HIT:    3062312 MISS:     306421
cpu0_L1D TRANSLATION  ACCESS:      35384 HIT:       4346 MISS:      31038
cpu0_L1D PREFETCH REQUESTED:    5859826 ISSUED:    5019521 USEFUL:     137091 USELESS:     161905
cpu0_L1D AVERAGE MISS LATENCY: 18.3 cycles
cpu0_L1I TOTAL        ACCESS:    1933207 HIT:    1878925 MISS:      54282
cpu0_L1I LOAD         ACCESS:    1933207 HIT:    1878925 MISS:      54282
cpu0_L1I RFO          ACCESS:          0 HIT:          0 MISS:          0
cpu0_L1I PREFETCH     ACCESS:          0 HIT:          0 MISS:          0
cpu0_L1I WRITE        ACCESS:          0 HIT:          0 MISS:          0
cpu0_L1I TRANSLATION  ACCESS:          0 HIT:          0 MISS:          0
cpu0_L1I PREFETCH REQUESTED:          0 ISSUED:          0 USEFUL:          0 USELESS:          0
cpu0_L1I AVERAGE MISS LATENCY: 11.25 cycles
cpu0_L2C TOTAL        ACCESS:    1353196 HIT:    1180969 MISS:     172227
cpu0_L2C LOAD         ACCESS:     457351 HIT:     414265 MISS:      43086
cpu0_L2C RFO          ACCESS:      78748 HIT:      18053 MISS:      60695
cpu0_L2C PREFETCH     ACCESS:     647336 HIT:     601808 MISS:      45528
cpu0_L2C WRITE        ACCESS:     138915 HIT:     138823 MISS:         92
cpu0_L2C TRANSLATION  ACCESS:      30846 HIT:       8020 MISS:      22826
cpu0_L2C PREFETCH REQUESTED:     349601 ISSUED:     348369 USEFUL:       2421 USELESS:       3798
cpu0_L2C AVERAGE MISS LATENCY: 289.4 cycles
cpu0_STLB TOTAL        ACCESS:     294388 HIT:     271342 MISS:      23046
cpu0_STLB LOAD         ACCESS:     294388 HIT:     271342 MISS:      23046
cpu0_STLB RFO          ACCESS:          0 HIT:          0 MISS:          0
cpu0_STLB PREFETCH     ACCESS:          0 HIT:          0 MISS:          0
cpu0_STLB WRITE        ACCESS:          0 HIT:          0 MISS:          0
cpu0_STLB TRANSLATION  ACCESS:          0 HIT:          0 MISS:          0
cpu0_STLB PREFETCH REQUESTED:          0 ISSUED:          0 USEFUL:          0 USELESS:          0
cpu0_STLB AVERAGE MISS LATENCY: 360.4 cycles

DRAM Statistics

Channel 0 RQ ROW_BUFFER_HIT:      33819
  ROW_BUFFER_MISS:      73044
 AVG DBUS CONGESTED CYCLE: 3.964
WQ ROW_BUFFER_HIT: Channel 0 
  ROW_BUFFER_MISS:       4598
  FULL:      58663
