WARNING: physical memory size is smaller than virtual memory size.

*** ChampSim Multicore Out-of-Order Simulator ***
Warmup Instructions: 25000000
Simulation Instructions: 25000000
Number of CPUs: 1
Page size: 4096

Off-chip DRAM Size: 4 GiB Channels: 1 Width: 64-bit Data Race: 800 MT/s
Heartbeat CPU 0 instructions: 10000001 cycles: 2516680 heartbeat IPC: 3.973 cumulative IPC: 3.973 (Simulation time: 00 hr 00 min 42 sec)
Heartbeat CPU 0 instructions: 20000001 cycles: 5148673 heartbeat IPC: 3.799 cumulative IPC: 3.884 (Simulation time: 00 hr 01 min 26 sec)
Warmup finished CPU 0 instructions: 25000001 cycles: 6552956 cumulative IPC: 3.815 (Simulation time: 00 hr 01 min 47 sec)
Warmup complete CPU 0 instructions: 25000001 cycles: 6552956 cumulative IPC: 3.815 (Simulation time: 00 hr 01 min 47 sec)
Heartbeat CPU 0 instructions: 30000003 cycles: 9897741 heartbeat IPC: 2.106 cumulative IPC: 1.495 (Simulation time: 00 hr 02 min 26 sec)
Heartbeat CPU 0 instructions: 40000001 cycles: 16595545 heartbeat IPC: 1.493 cumulative IPC: 1.494 (Simulation time: 00 hr 03 min 35 sec)
Heartbeat CPU 0 instructions: 50000000 cycles: 23255348 heartbeat IPC: 1.502 cumulative IPC: 1.497 (Simulation time: 00 hr 04 min 37 sec)
Simulation finished CPU 0 instructions: 25000003 cycles: 16702394 cumulative IPC: 1.497 (Simulation time: 00 hr 04 min 37 sec)
Simulation complete CPU 0 instructions: 25000003 cycles: 16702394 cumulative IPC: 1.497 (Simulation time: 00 hr 04 min 37 sec)

ChampSim completed all CPUs

=== Simulation ===
CPU 0 runs ./traces/zeusmp_100B.trace.xz
Region of Interest Statistics

CPU 0 cumulative IPC: 1.497 instructions: 25000003 cycles: 16702394
CPU 0 Branch Prediction Accuracy: 99.35% MPKI: 0.3559 Average ROB Occupancy at Mispredict: 288.1
Branch type MPKI
BRANCH_DIRECT_JUMP: 0
BRANCH_INDIRECT: 0
BRANCH_CONDITIONAL: 0.356
BRANCH_DIRECT_CALL: 0
BRANCH_INDIRECT_CALL: 0
BRANCH_RETURN: 0

LLC TOTAL        ACCESS:     204831 HIT:      76618 MISS:     128213
LLC LOAD         ACCESS:      42070 HIT:      10847 MISS:      31223
LLC RFO          ACCESS:      49536 HIT:          0 MISS:      49536
LLC PREFETCH     ACCESS:      60815 HIT:      15034 MISS:      45781
LLC WRITE        ACCESS:      49587 HIT:      49587 MISS:          0
LLC TRANSLATION  ACCESS:       2823 HIT:       1150 MISS:       1673
LLC PREFETCH REQUESTED:          0 ISSUED:          0 USEFUL:          0 USELESS:          0
LLC AVERAGE MISS LATENCY: 1047 cycles
cpu0_DTLB TOTAL        ACCESS:    4666202 HIT:    3532504 MISS:    1133698
cpu0_DTLB LOAD         ACCESS:    4666202 HIT:    3532504 MISS:    1133698
cpu0_DTLB RFO          ACCESS:          0 HIT:          0 MISS:          0
cpu0_DTLB PREFETCH     ACCESS:          0 HIT:          0 MISS:          0
cpu0_DTLB WRITE        ACCESS:          0 HIT:          0 MISS:          0
cpu0_DTLB TRANSLATION  ACCESS:          0 HIT:          0 MISS:          0
cpu0_DTLB PREFETCH REQUESTED:          0 ISSUED:          0 USEFUL:          0 USELESS:          0
cpu0_DTLB AVERAGE MISS LATENCY: 9.753 cycles
cpu0_ITLB TOTAL        ACCESS:          0 HIT:          0 MISS:          0
cpu0_ITLB LOAD         ACCESS:          0 HIT:          0 MISS:          0
cpu0_ITLB RFO          ACCESS:          0 HIT:          0 MISS:          0
cpu0_ITLB PREFETCH     ACCESS:          0 HIT:          0 MISS:          0
cpu0_ITLB WRITE        ACCESS:          0 HIT:          0 MISS:          0
cpu0_ITLB TRANSLATION  ACCESS:          0 HIT:          0 MISS:          0
cpu0_ITLB PREFETCH REQUESTED:          0 ISSUED:          0 USEFUL:          0 USELESS:          0
cpu0_ITLB AVERAGE MISS LATENCY: -nan cycles
cpu0_L1D TOTAL        ACCESS:    7312877 HIT:    5401332 MISS:    1911545
cpu0_L1D LOAD         ACCESS:    3753868 HIT:    2886701 MISS:     867167
cpu0_L1D RFO          ACCESS:          0 HIT:          0 MISS:          0
cpu0_L1D PREFETCH     ACCESS:    1792173 HIT:    1446795 MISS:     345378
cpu0_L1D WRITE        ACCESS:    1763656 HIT:    1067836 MISS:     695820
cpu0_L1D TRANSLATION  ACCESS:       3180 HIT:          0 MISS:       3180
cpu0_L1D PREFETCH REQUESTED:    6158686 ISSUED:    1792173 USEFUL:      61836 USELESS:     214977
cpu0_L1D AVERAGE MISS LATENCY: 81.43 cycles
cpu0_L1I TOTAL        ACCESS:          0 HIT:          0 MISS:          0
cpu0_L1I LOAD         ACCESS:          0 HIT:          0 MISS:          0
cpu0_L1I RFO          ACCESS:          0 HIT:          0 MISS:          0
cpu0_L1I PREFETCH     ACCESS:          0 HIT:          0 MISS:          0
cpu0_L1I WRITE        ACCESS:          0 HIT:          0 MISS:          0
cpu0_L1I TRANSLATION  ACCESS:          0 HIT:          0 MISS:          0
cpu0_L1I PREFETCH REQUESTED:          0 ISSUED:          0 USEFUL:          0 USELESS:          0
cpu0_L1I AVERAGE MISS LATENCY: -nan cycles
cpu0_L2C TOTAL        ACCESS:    2319638 HIT:    2164393 MISS:     155245
cpu0_L2C LOAD         ACCESS:     845357 HIT:     803287 MISS:      42070
cpu0_L2C RFO          ACCESS:     545513 HIT:     495977 MISS:      49536
cpu0_L2C PREFETCH     ACCESS:     359895 HIT:     299079 MISS:      60816
cpu0_L2C WRITE        ACCESS:     565693 HIT:     565693 MISS:          0
cpu0_L2C TRANSLATION  ACCESS:       3180 HIT:        357 MISS:       2823
cpu0_L2C PREFETCH REQUESTED:      83218 ISSUED:      83007 USEFUL:          0 USELESS:        131
cpu0_L2C AVERAGE MISS LATENCY: 885.5 cycles
cpu0_STLB TOTAL        ACCESS:    1051427 HIT:    1049465 MISS:       1962
cpu0_STLB LOAD         ACCESS:    1051427 HIT:    1049465 MISS:       1962
cpu0_STLB RFO          ACCESS:          0 HIT:          0 MISS:          0
cpu0_STLB PREFETCH     ACCESS:          0 HIT:          0 MISS:          0
cpu0_STLB WRITE        ACCESS:          0 HIT:          0 MISS:          0
cpu0_STLB TRANSLATION  ACCESS:          0 HIT:          0 MISS:          0
cpu0_STLB PREFETCH REQUESTED:          0 ISSUED:          0 USEFUL:          0 USELESS:          0
cpu0_STLB AVERAGE MISS LATENCY: 1450 cycles

DRAM Statistics

Channel 0 RQ ROW_BUFFER_HIT:      24355
  ROW_BUFFER_MISS:     103852
 AVG DBUS CONGESTED CYCLE: 3.99
WQ ROW_BUFFER_HIT: Channel 0 
  ROW_BUFFER_MISS:        688
  FULL:      49015
