WARNING: physical memory size is smaller than virtual memory size.

*** ChampSim Multicore Out-of-Order Simulator ***
Warmup Instructions: 25000000
Simulation Instructions: 25000000
Number of CPUs: 1
Page size: 4096

Off-chip DRAM Size: 4 GiB Channels: 1 Width: 64-bit Data Race: 800 MT/s
Heartbeat CPU 0 instructions: 10000001 cycles: 2536642 heartbeat IPC: 3.942 cumulative IPC: 3.942 (Simulation time: 00 hr 00 min 41 sec)
Heartbeat CPU 0 instructions: 20000000 cycles: 5079343 heartbeat IPC: 3.933 cumulative IPC: 3.938 (Simulation time: 00 hr 01 min 20 sec)
Warmup finished CPU 0 instructions: 25000003 cycles: 6355169 cumulative IPC: 3.934 (Simulation time: 00 hr 01 min 37 sec)
Warmup complete CPU 0 instructions: 25000003 cycles: 6355169 cumulative IPC: 3.934 (Simulation time: 00 hr 01 min 37 sec)
Heartbeat CPU 0 instructions: 30000003 cycles: 8134180 heartbeat IPC: 3.273 cumulative IPC: 2.811 (Simulation time: 00 hr 01 min 59 sec)
Heartbeat CPU 0 instructions: 40000000 cycles: 11702292 heartbeat IPC: 2.803 cumulative IPC: 2.805 (Simulation time: 00 hr 02 min 41 sec)
Heartbeat CPU 0 instructions: 50000000 cycles: 15280671 heartbeat IPC: 2.795 cumulative IPC: 2.801 (Simulation time: 00 hr 03 min 22 sec)
Simulation finished CPU 0 instructions: 25000003 cycles: 8925506 cumulative IPC: 2.801 (Simulation time: 00 hr 03 min 22 sec)
Simulation complete CPU 0 instructions: 25000003 cycles: 8925506 cumulative IPC: 2.801 (Simulation time: 00 hr 03 min 22 sec)

ChampSim completed all CPUs

=== Simulation ===
CPU 0 runs ./traces/zeusmp_600B.trace.xz
Region of Interest Statistics

CPU 0 cumulative IPC: 2.801 instructions: 25000003 cycles: 8925506
CPU 0 Branch Prediction Accuracy: 97.56% MPKI: 0.8748 Average ROB Occupancy at Mispredict: 196.6
Branch type MPKI
BRANCH_DIRECT_JUMP: 0
BRANCH_INDIRECT: 0
BRANCH_CONDITIONAL: 0.875
BRANCH_DIRECT_CALL: 0
BRANCH_INDIRECT_CALL: 0
BRANCH_RETURN: 0

LLC TOTAL        ACCESS:      95500 HIT:      16107 MISS:      79393
LLC LOAD         ACCESS:      12324 HIT:         45 MISS:      12279
LLC RFO          ACCESS:          0 HIT:          0 MISS:          0
LLC PREFETCH     ACCESS:      67305 HIT:        262 MISS:      67043
LLC WRITE        ACCESS:      15821 HIT:      15799 MISS:         22
LLC TRANSLATION  ACCESS:         50 HIT:          1 MISS:         49
LLC PREFETCH REQUESTED:          0 ISSUED:          0 USEFUL:          0 USELESS:          0
LLC AVERAGE MISS LATENCY: 292.4 cycles
cpu0_DTLB TOTAL        ACCESS:    4596216 HIT:    4581250 MISS:      14966
cpu0_DTLB LOAD         ACCESS:    4596216 HIT:    4581250 MISS:      14966
cpu0_DTLB RFO          ACCESS:          0 HIT:          0 MISS:          0
cpu0_DTLB PREFETCH     ACCESS:          0 HIT:          0 MISS:          0
cpu0_DTLB WRITE        ACCESS:          0 HIT:          0 MISS:          0
cpu0_DTLB TRANSLATION  ACCESS:          0 HIT:          0 MISS:          0
cpu0_DTLB PREFETCH REQUESTED:          0 ISSUED:          0 USEFUL:          0 USELESS:          0
cpu0_DTLB AVERAGE MISS LATENCY: 8.728 cycles
cpu0_ITLB TOTAL        ACCESS:     149929 HIT:     149929 MISS:          0
cpu0_ITLB LOAD         ACCESS:     149929 HIT:     149929 MISS:          0
cpu0_ITLB RFO          ACCESS:          0 HIT:          0 MISS:          0
cpu0_ITLB PREFETCH     ACCESS:          0 HIT:          0 MISS:          0
cpu0_ITLB WRITE        ACCESS:          0 HIT:          0 MISS:          0
cpu0_ITLB TRANSLATION  ACCESS:          0 HIT:          0 MISS:          0
cpu0_ITLB PREFETCH REQUESTED:          0 ISSUED:          0 USEFUL:          0 USELESS:          0
cpu0_ITLB AVERAGE MISS LATENCY: -nan cycles
cpu0_L1D TOTAL        ACCESS:    8458819 HIT:    7686436 MISS:     772383
cpu0_L1D LOAD         ACCESS:    3936517 HIT:    3533505 MISS:     403012
cpu0_L1D RFO          ACCESS:          0 HIT:          0 MISS:          0
cpu0_L1D PREFETCH     ACCESS:    2717790 HIT:    2361442 MISS:     356348
cpu0_L1D WRITE        ACCESS:    1803301 HIT:    1791489 MISS:      11812
cpu0_L1D TRANSLATION  ACCESS:       1211 HIT:          0 MISS:       1211
cpu0_L1D PREFETCH REQUESTED:    3936517 ISSUED:    2717793 USEFUL:      74541 USELESS:       6325
cpu0_L1D AVERAGE MISS LATENCY: 19.08 cycles
cpu0_L1I TOTAL        ACCESS:     189175 HIT:     189175 MISS:          0
cpu0_L1I LOAD         ACCESS:     189175 HIT:     189175 MISS:          0
cpu0_L1I RFO          ACCESS:          0 HIT:          0 MISS:          0
cpu0_L1I PREFETCH     ACCESS:          0 HIT:          0 MISS:          0
cpu0_L1I WRITE        ACCESS:          0 HIT:          0 MISS:          0
cpu0_L1I TRANSLATION  ACCESS:          0 HIT:          0 MISS:          0
cpu0_L1I PREFETCH REQUESTED:          0 ISSUED:          0 USEFUL:          0 USELESS:          0
cpu0_L1I AVERAGE MISS LATENCY: -nan cycles
cpu0_L2C TOTAL        ACCESS:     281061 HIT:     137074 MISS:     143987
cpu0_L2C LOAD         ACCESS:      49595 HIT:      25089 MISS:      24506
cpu0_L2C RFO          ACCESS:       6148 HIT:       6148 MISS:          0
cpu0_L2C PREFETCH     ACCESS:     190601 HIT:      71193 MISS:     119408
cpu0_L2C WRITE        ACCESS:      33506 HIT:      33483 MISS:         23
cpu0_L2C TRANSLATION  ACCESS:       1211 HIT:       1161 MISS:         50
cpu0_L2C PREFETCH REQUESTED:     109731 ISSUED:     109731 USEFUL:      24967 USELESS:      11311
cpu0_L2C AVERAGE MISS LATENCY: 166.5 cycles
cpu0_STLB TOTAL        ACCESS:       1546 HIT:        336 MISS:       1210
cpu0_STLB LOAD         ACCESS:       1546 HIT:        336 MISS:       1210
cpu0_STLB RFO          ACCESS:          0 HIT:          0 MISS:          0
cpu0_STLB PREFETCH     ACCESS:          0 HIT:          0 MISS:          0
cpu0_STLB WRITE        ACCESS:          0 HIT:          0 MISS:          0
cpu0_STLB TRANSLATION  ACCESS:          0 HIT:          0 MISS:          0
cpu0_STLB PREFETCH REQUESTED:          0 ISSUED:          0 USEFUL:          0 USELESS:          0
cpu0_STLB AVERAGE MISS LATENCY: 217.2 cycles

DRAM Statistics

Channel 0 RQ ROW_BUFFER_HIT:      60266
  ROW_BUFFER_MISS:      19063
 AVG DBUS CONGESTED CYCLE: 3.944
WQ ROW_BUFFER_HIT: Channel 0 
  ROW_BUFFER_MISS:       5567
  FULL:      10014
