WARNING: physical memory size is smaller than virtual memory size.

*** ChampSim Multicore Out-of-Order Simulator ***
Warmup Instructions: 25000000
Simulation Instructions: 25000000
Number of CPUs: 1
Page size: 4096

Off-chip DRAM Size: 4 GiB Channels: 1 Width: 64-bit Data Race: 800 MT/s
Heartbeat CPU 0 instructions: 10000001 cycles: 2500087 heartbeat IPC: 4 cumulative IPC: 4 (Simulation time: 00 hr 00 min 37 sec)
Heartbeat CPU 0 instructions: 20000003 cycles: 5000103 heartbeat IPC: 4 cumulative IPC: 4 (Simulation time: 00 hr 01 min 17 sec)
Warmup finished CPU 0 instructions: 25000003 cycles: 6250104 cumulative IPC: 4 (Simulation time: 00 hr 01 min 38 sec)
Warmup complete CPU 0 instructions: 25000003 cycles: 6250104 cumulative IPC: 4 (Simulation time: 00 hr 01 min 38 sec)
Heartbeat CPU 0 instructions: 30000000 cycles: 11013908 heartbeat IPC: 1.663 cumulative IPC: 1.05 (Simulation time: 00 hr 02 min 23 sec)
Heartbeat CPU 0 instructions: 40000001 cycles: 21273888 heartbeat IPC: 0.9747 cumulative IPC: 0.9984 (Simulation time: 00 hr 03 min 57 sec)
Heartbeat CPU 0 instructions: 50000002 cycles: 33823249 heartbeat IPC: 0.7969 cumulative IPC: 0.9067 (Simulation time: 00 hr 05 min 49 sec)
Simulation finished CPU 0 instructions: 25000003 cycles: 27573147 cumulative IPC: 0.9067 (Simulation time: 00 hr 05 min 49 sec)
Simulation complete CPU 0 instructions: 25000003 cycles: 27573147 cumulative IPC: 0.9067 (Simulation time: 00 hr 05 min 49 sec)

ChampSim completed all CPUs

=== Simulation ===
CPU 0 runs ./traces/602.gcc_s-734B.champsimtrace.xz
Region of Interest Statistics

CPU 0 cumulative IPC: 0.9067 instructions: 25000003 cycles: 27573147
CPU 0 Branch Prediction Accuracy: 89.42% MPKI: 25.09 Average ROB Occupancy at Mispredict: 17.5
Branch type MPKI
BRANCH_DIRECT_JUMP: 0.0794
BRANCH_INDIRECT: 0
BRANCH_CONDITIONAL: 25
BRANCH_DIRECT_CALL: 0.0548
BRANCH_INDIRECT_CALL: 0
BRANCH_RETURN: 0

LLC TOTAL        ACCESS:     211561 HIT:       1270 MISS:     210291
LLC LOAD         ACCESS:       6022 HIT:        126 MISS:       5896
LLC RFO          ACCESS:          1 HIT:          0 MISS:          1
LLC PREFETCH     ACCESS:     201661 HIT:        236 MISS:     201425
LLC WRITE        ACCESS:       1293 HIT:        586 MISS:        707
LLC TRANSLATION  ACCESS:       2584 HIT:        322 MISS:       2262
LLC PREFETCH REQUESTED:          0 ISSUED:          0 USEFUL:          0 USELESS:          0
LLC AVERAGE MISS LATENCY: 150.4 cycles
cpu0_DTLB TOTAL        ACCESS:    6245152 HIT:    6232574 MISS:      12578
cpu0_DTLB LOAD         ACCESS:    6245152 HIT:    6232574 MISS:      12578
cpu0_DTLB RFO          ACCESS:          0 HIT:          0 MISS:          0
cpu0_DTLB PREFETCH     ACCESS:          0 HIT:          0 MISS:          0
cpu0_DTLB WRITE        ACCESS:          0 HIT:          0 MISS:          0
cpu0_DTLB TRANSLATION  ACCESS:          0 HIT:          0 MISS:          0
cpu0_DTLB PREFETCH REQUESTED:          0 ISSUED:          0 USEFUL:          0 USELESS:          0
cpu0_DTLB AVERAGE MISS LATENCY: 74.13 cycles
cpu0_ITLB TOTAL        ACCESS:          4 HIT:          4 MISS:          0
cpu0_ITLB LOAD         ACCESS:          4 HIT:          4 MISS:          0
cpu0_ITLB RFO          ACCESS:          0 HIT:          0 MISS:          0
cpu0_ITLB PREFETCH     ACCESS:          0 HIT:          0 MISS:          0
cpu0_ITLB WRITE        ACCESS:          0 HIT:          0 MISS:          0
cpu0_ITLB TRANSLATION  ACCESS:          0 HIT:          0 MISS:          0
cpu0_ITLB PREFETCH REQUESTED:          0 ISSUED:          0 USEFUL:          0 USELESS:          0
cpu0_ITLB AVERAGE MISS LATENCY: -nan cycles
cpu0_L1D TOTAL        ACCESS:   13797004 HIT:   11705106 MISS:    2091898
cpu0_L1D LOAD         ACCESS:    5605923 HIT:    5326907 MISS:     279016
cpu0_L1D RFO          ACCESS:          0 HIT:          0 MISS:          0
cpu0_L1D PREFETCH     ACCESS:    5600444 HIT:    3790392 MISS:    1810052
cpu0_L1D WRITE        ACCESS:    2585030 HIT:    2584995 MISS:         35
cpu0_L1D TRANSLATION  ACCESS:       5607 HIT:       2812 MISS:       2795
cpu0_L1D PREFETCH REQUESTED:    5609020 ISSUED:    5600445 USEFUL:     388252 USELESS:      12561
cpu0_L1D AVERAGE MISS LATENCY: 11.12 cycles
cpu0_L1I TOTAL        ACCESS:          4 HIT:          4 MISS:          0
cpu0_L1I LOAD         ACCESS:          4 HIT:          4 MISS:          0
cpu0_L1I RFO          ACCESS:          0 HIT:          0 MISS:          0
cpu0_L1I PREFETCH     ACCESS:          0 HIT:          0 MISS:          0
cpu0_L1I WRITE        ACCESS:          0 HIT:          0 MISS:          0
cpu0_L1I TRANSLATION  ACCESS:          0 HIT:          0 MISS:          0
cpu0_L1I PREFETCH REQUESTED:          0 ISSUED:          0 USEFUL:          0 USELESS:          0
cpu0_L1I AVERAGE MISS LATENCY: -nan cycles
cpu0_L2C TOTAL        ACCESS:     423360 HIT:     212732 MISS:     210628
cpu0_L2C LOAD         ACCESS:      15617 HIT:       9559 MISS:       6058
cpu0_L2C RFO          ACCESS:         10 HIT:          9 MISS:          1
cpu0_L2C PREFETCH     ACCESS:     402056 HIT:     200075 MISS:     201981
cpu0_L2C WRITE        ACCESS:       2883 HIT:       2879 MISS:          4
cpu0_L2C TRANSLATION  ACCESS:       2794 HIT:        210 MISS:       2584
cpu0_L2C PREFETCH REQUESTED:       1235 ISSUED:       1235 USEFUL:        330 USELESS:        420
cpu0_L2C AVERAGE MISS LATENCY: 171 cycles
cpu0_STLB TOTAL        ACCESS:       7140 HIT:       1950 MISS:       5190
cpu0_STLB LOAD         ACCESS:       7140 HIT:       1950 MISS:       5190
cpu0_STLB RFO          ACCESS:          0 HIT:          0 MISS:          0
cpu0_STLB PREFETCH     ACCESS:          0 HIT:          0 MISS:          0
cpu0_STLB WRITE        ACCESS:          0 HIT:          0 MISS:          0
cpu0_STLB TRANSLATION  ACCESS:          0 HIT:          0 MISS:          0
cpu0_STLB PREFETCH REQUESTED:          0 ISSUED:          0 USEFUL:          0 USELESS:          0
cpu0_STLB AVERAGE MISS LATENCY: 173.2 cycles

DRAM Statistics

Channel 0 RQ ROW_BUFFER_HIT:     127535
  ROW_BUFFER_MISS:      82002
 AVG DBUS CONGESTED CYCLE: 3.573
WQ ROW_BUFFER_HIT: Channel 0 
  ROW_BUFFER_MISS:        624
  FULL:        754
