WARNING: physical memory size is smaller than virtual memory size.

*** ChampSim Multicore Out-of-Order Simulator ***
Warmup Instructions: 25000000
Simulation Instructions: 25000000
Number of CPUs: 1
Page size: 4096

Off-chip DRAM Size: 4 GiB Channels: 1 Width: 64-bit Data Race: 800 MT/s
Heartbeat CPU 0 instructions: 10000002 cycles: 2500068 heartbeat IPC: 4 cumulative IPC: 4 (Simulation time: 00 hr 00 min 36 sec)
Heartbeat CPU 0 instructions: 20000002 cycles: 5000068 heartbeat IPC: 4 cumulative IPC: 4 (Simulation time: 00 hr 01 min 13 sec)
Warmup finished CPU 0 instructions: 25000002 cycles: 6250069 cumulative IPC: 4 (Simulation time: 00 hr 01 min 32 sec)
Warmup complete CPU 0 instructions: 25000002 cycles: 6250069 cumulative IPC: 4 (Simulation time: 00 hr 01 min 32 sec)
Heartbeat CPU 0 instructions: 30000000 cycles: 21859913 heartbeat IPC: 0.5931 cumulative IPC: 0.3203 (Simulation time: 00 hr 03 min 43 sec)
Heartbeat CPU 0 instructions: 40000001 cycles: 53199750 heartbeat IPC: 0.3191 cumulative IPC: 0.3195 (Simulation time: 00 hr 08 min 33 sec)
Heartbeat CPU 0 instructions: 50000000 cycles: 84401772 heartbeat IPC: 0.3205 cumulative IPC: 0.3199 (Simulation time: 00 hr 13 min 34 sec)
Simulation finished CPU 0 instructions: 25000000 cycles: 78151709 cumulative IPC: 0.3199 (Simulation time: 00 hr 13 min 34 sec)
Simulation complete CPU 0 instructions: 25000000 cycles: 78151709 cumulative IPC: 0.3199 (Simulation time: 00 hr 13 min 34 sec)

ChampSim completed all CPUs

=== Simulation ===
CPU 0 runs ./traces/602.gcc_s-2226B.champsimtrace.xz
Region of Interest Statistics

CPU 0 cumulative IPC: 0.3199 instructions: 25000000 cycles: 78151709
CPU 0 Branch Prediction Accuracy: 98.44% MPKI: 5.548 Average ROB Occupancy at Mispredict: 65.87
Branch type MPKI
BRANCH_DIRECT_JUMP: 0.073
BRANCH_INDIRECT: 0
BRANCH_CONDITIONAL: 5.47
BRANCH_DIRECT_CALL: 8e-05
BRANCH_INDIRECT_CALL: 0
BRANCH_RETURN: 0

LLC TOTAL        ACCESS:    4905410 HIT:      36444 MISS:    4868966
LLC LOAD         ACCESS:    1622103 HIT:      20877 MISS:    1601226
LLC RFO          ACCESS:         10 HIT:          0 MISS:         10
LLC PREFETCH     ACCESS:    3273807 HIT:      12589 MISS:    3261218
LLC WRITE        ACCESS:       2762 HIT:       1954 MISS:        808
LLC TRANSLATION  ACCESS:       6728 HIT:       1024 MISS:       5704
LLC PREFETCH REQUESTED:          0 ISSUED:          0 USEFUL:          0 USELESS:          0
LLC AVERAGE MISS LATENCY: 206.1 cycles
cpu0_DTLB TOTAL        ACCESS:    3488116 HIT:    3143702 MISS:     344414
cpu0_DTLB LOAD         ACCESS:    3488116 HIT:    3143702 MISS:     344414
cpu0_DTLB RFO          ACCESS:          0 HIT:          0 MISS:          0
cpu0_DTLB PREFETCH     ACCESS:          0 HIT:          0 MISS:          0
cpu0_DTLB WRITE        ACCESS:          0 HIT:          0 MISS:          0
cpu0_DTLB TRANSLATION  ACCESS:          0 HIT:          0 MISS:          0
cpu0_DTLB PREFETCH REQUESTED:          0 ISSUED:          0 USEFUL:          0 USELESS:          0
cpu0_DTLB AVERAGE MISS LATENCY: 19.27 cycles
cpu0_ITLB TOTAL        ACCESS:          0 HIT:          0 MISS:          0
cpu0_ITLB LOAD         ACCESS:          0 HIT:          0 MISS:          0
cpu0_ITLB RFO          ACCESS:          0 HIT:          0 MISS:          0
cpu0_ITLB PREFETCH     ACCESS:          0 HIT:          0 MISS:          0
cpu0_ITLB WRITE        ACCESS:          0 HIT:          0 MISS:          0
cpu0_ITLB TRANSLATION  ACCESS:          0 HIT:          0 MISS:          0
cpu0_ITLB PREFETCH REQUESTED:          0 ISSUED:          0 USEFUL:          0 USELESS:          0
cpu0_ITLB AVERAGE MISS LATENCY: -nan cycles
cpu0_L1D TOTAL        ACCESS:    6327797 HIT:    2032872 MISS:    4294925
cpu0_L1D LOAD         ACCESS:    4230689 HIT:     814901 MISS:    3415788
cpu0_L1D RFO          ACCESS:          0 HIT:          0 MISS:          0
cpu0_L1D PREFETCH     ACCESS:    1722056 HIT:     850781 MISS:     871275
cpu0_L1D WRITE        ACCESS:     341669 HIT:     341650 MISS:         19
cpu0_L1D TRANSLATION  ACCESS:      33383 HIT:      25540 MISS:       7843
cpu0_L1D PREFETCH REQUESTED:   53759684 ISSUED:    1722049 USEFUL:      82542 USELESS:      59507
cpu0_L1D AVERAGE MISS LATENCY: 233.5 cycles
cpu0_L1I TOTAL        ACCESS:          0 HIT:          0 MISS:          0
cpu0_L1I LOAD         ACCESS:          0 HIT:          0 MISS:          0
cpu0_L1I RFO          ACCESS:          0 HIT:          0 MISS:          0
cpu0_L1I PREFETCH     ACCESS:          0 HIT:          0 MISS:          0
cpu0_L1I WRITE        ACCESS:          0 HIT:          0 MISS:          0
cpu0_L1I TRANSLATION  ACCESS:          0 HIT:          0 MISS:          0
cpu0_L1I PREFETCH REQUESTED:          0 ISSUED:          0 USEFUL:          0 USELESS:          0
cpu0_L1I AVERAGE MISS LATENCY: -nan cycles
cpu0_L2C TOTAL        ACCESS:    5846217 HIT:     119910 MISS:    5726307
cpu0_L2C LOAD         ACCESS:    1725615 HIT:      59389 MISS:    1666226
cpu0_L2C RFO          ACCESS:         10 HIT:          0 MISS:         10
cpu0_L2C PREFETCH     ACCESS:    4109571 HIT:      56228 MISS:    4053343
cpu0_L2C WRITE        ACCESS:       3200 HIT:       3200 MISS:          0
cpu0_L2C TRANSLATION  ACCESS:       7821 HIT:       1093 MISS:       6728
cpu0_L2C PREFETCH REQUESTED:    3967672 ISSUED:    3967521 USEFUL:      48740 USELESS:       6580
cpu0_L2C AVERAGE MISS LATENCY: 175.9 cycles
cpu0_STLB TOTAL        ACCESS:      33963 HIT:       1260 MISS:      32703
cpu0_STLB LOAD         ACCESS:      33963 HIT:       1260 MISS:      32703
cpu0_STLB RFO          ACCESS:          0 HIT:          0 MISS:          0
cpu0_STLB PREFETCH     ACCESS:          0 HIT:          0 MISS:          0
cpu0_STLB WRITE        ACCESS:          0 HIT:          0 MISS:          0
cpu0_STLB TRANSLATION  ACCESS:          0 HIT:          0 MISS:          0
cpu0_STLB PREFETCH REQUESTED:          0 ISSUED:          0 USEFUL:          0 USELESS:          0
cpu0_STLB AVERAGE MISS LATENCY: 328.4 cycles

DRAM Statistics

Channel 0 RQ ROW_BUFFER_HIT:    1628828
  ROW_BUFFER_MISS:     139744
 AVG DBUS CONGESTED CYCLE: 3.986
WQ ROW_BUFFER_HIT: Channel 0 
  ROW_BUFFER_MISS:        645
  FULL:       2059
