WARNING: physical memory size is smaller than virtual memory size.

*** ChampSim Multicore Out-of-Order Simulator ***
Warmup Instructions: 25000000
Simulation Instructions: 25000000
Number of CPUs: 1
Page size: 4096

Off-chip DRAM Size: 4 GiB Channels: 1 Width: 64-bit Data Race: 800 MT/s
Heartbeat CPU 0 instructions: 10000001 cycles: 2500087 heartbeat IPC: 4 cumulative IPC: 4 (Simulation time: 00 hr 00 min 30 sec)
Heartbeat CPU 0 instructions: 20000003 cycles: 5000109 heartbeat IPC: 4 cumulative IPC: 4 (Simulation time: 00 hr 01 min 03 sec)
Warmup finished CPU 0 instructions: 25000003 cycles: 6250110 cumulative IPC: 4 (Simulation time: 00 hr 01 min 19 sec)
Warmup complete CPU 0 instructions: 25000003 cycles: 6250110 cumulative IPC: 4 (Simulation time: 00 hr 01 min 19 sec)
Heartbeat CPU 0 instructions: 30000000 cycles: 10994778 heartbeat IPC: 1.668 cumulative IPC: 1.054 (Simulation time: 00 hr 01 min 52 sec)
Heartbeat CPU 0 instructions: 40000001 cycles: 21300808 heartbeat IPC: 0.9703 cumulative IPC: 0.9966 (Simulation time: 00 hr 03 min 06 sec)
Heartbeat CPU 0 instructions: 50000002 cycles: 33766862 heartbeat IPC: 0.8022 cumulative IPC: 0.9085 (Simulation time: 00 hr 04 min 30 sec)
Simulation finished CPU 0 instructions: 25000003 cycles: 27516754 cumulative IPC: 0.9085 (Simulation time: 00 hr 04 min 30 sec)
Simulation complete CPU 0 instructions: 25000003 cycles: 27516754 cumulative IPC: 0.9085 (Simulation time: 00 hr 04 min 30 sec)

ChampSim completed all CPUs

=== Simulation ===
CPU 0 runs ./traces/602.gcc_s-734B.champsimtrace.xz
Region of Interest Statistics

CPU 0 cumulative IPC: 0.9085 instructions: 25000003 cycles: 27516754
CPU 0 Branch Prediction Accuracy: 89.42% MPKI: 25.09 Average ROB Occupancy at Mispredict: 17.5
Branch type MPKI
BRANCH_DIRECT_JUMP: 0.0794
BRANCH_INDIRECT: 0
BRANCH_CONDITIONAL: 25
BRANCH_DIRECT_CALL: 0.0548
BRANCH_INDIRECT_CALL: 0
BRANCH_RETURN: 0

LLC TOTAL        ACCESS:     211560 HIT:       1229 MISS:     210331
LLC LOAD         ACCESS:       6018 HIT:        107 MISS:       5911
LLC RFO          ACCESS:          1 HIT:          0 MISS:          1
LLC PREFETCH     ACCESS:     201661 HIT:        229 MISS:     201432
LLC WRITE        ACCESS:       1294 HIT:        585 MISS:        709
LLC TRANSLATION  ACCESS:       2586 HIT:        308 MISS:       2278
LLC PREFETCH REQUESTED:          0 ISSUED:          0 USEFUL:          0 USELESS:          0
LLC AVERAGE MISS LATENCY: 150.1 cycles
cpu0_DTLB TOTAL        ACCESS:    6245151 HIT:    6232572 MISS:      12579
cpu0_DTLB LOAD         ACCESS:    6245151 HIT:    6232572 MISS:      12579
cpu0_DTLB RFO          ACCESS:          0 HIT:          0 MISS:          0
cpu0_DTLB PREFETCH     ACCESS:          0 HIT:          0 MISS:          0
cpu0_DTLB WRITE        ACCESS:          0 HIT:          0 MISS:          0
cpu0_DTLB TRANSLATION  ACCESS:          0 HIT:          0 MISS:          0
cpu0_DTLB PREFETCH REQUESTED:          0 ISSUED:          0 USEFUL:          0 USELESS:          0
cpu0_DTLB AVERAGE MISS LATENCY: 74.67 cycles
cpu0_ITLB TOTAL        ACCESS:          4 HIT:          4 MISS:          0
cpu0_ITLB LOAD         ACCESS:          4 HIT:          4 MISS:          0
cpu0_ITLB RFO          ACCESS:          0 HIT:          0 MISS:          0
cpu0_ITLB PREFETCH     ACCESS:          0 HIT:          0 MISS:          0
cpu0_ITLB WRITE        ACCESS:          0 HIT:          0 MISS:          0
cpu0_ITLB TRANSLATION  ACCESS:          0 HIT:          0 MISS:          0
cpu0_ITLB PREFETCH REQUESTED:          0 ISSUED:          0 USEFUL:          0 USELESS:          0
cpu0_ITLB AVERAGE MISS LATENCY: -nan cycles
cpu0_L1D TOTAL        ACCESS:   13797662 HIT:   11701466 MISS:    2096196
cpu0_L1D LOAD         ACCESS:    5605939 HIT:    5325677 MISS:     280262
cpu0_L1D RFO          ACCESS:          0 HIT:          0 MISS:          0
cpu0_L1D PREFETCH     ACCESS:    5600453 HIT:    3787349 MISS:    1813104
cpu0_L1D WRITE        ACCESS:    2585663 HIT:    2585628 MISS:         35
cpu0_L1D TRANSLATION  ACCESS:       5607 HIT:       2812 MISS:       2795
cpu0_L1D PREFETCH REQUESTED:    5608759 ISSUED:    5600454 USEFUL:     388255 USELESS:      12560
cpu0_L1D AVERAGE MISS LATENCY: 10.99 cycles
cpu0_L1I TOTAL        ACCESS:          4 HIT:          4 MISS:          0
cpu0_L1I LOAD         ACCESS:          4 HIT:          4 MISS:          0
cpu0_L1I RFO          ACCESS:          0 HIT:          0 MISS:          0
cpu0_L1I PREFETCH     ACCESS:          0 HIT:          0 MISS:          0
cpu0_L1I WRITE        ACCESS:          0 HIT:          0 MISS:          0
cpu0_L1I TRANSLATION  ACCESS:          0 HIT:          0 MISS:          0
cpu0_L1I PREFETCH REQUESTED:          0 ISSUED:          0 USEFUL:          0 USELESS:          0
cpu0_L1I AVERAGE MISS LATENCY: -nan cycles
cpu0_L2C TOTAL        ACCESS:     423351 HIT:     212727 MISS:     210624
cpu0_L2C LOAD         ACCESS:      15615 HIT:       9559 MISS:       6056
cpu0_L2C RFO          ACCESS:         10 HIT:          9 MISS:          1
cpu0_L2C PREFETCH     ACCESS:     402049 HIT:     200072 MISS:     201977
cpu0_L2C WRITE        ACCESS:       2883 HIT:       2879 MISS:          4
cpu0_L2C TRANSLATION  ACCESS:       2794 HIT:        208 MISS:       2586
cpu0_L2C PREFETCH REQUESTED:       1226 ISSUED:       1226 USEFUL:        330 USELESS:        420
cpu0_L2C AVERAGE MISS LATENCY: 170.7 cycles
cpu0_STLB TOTAL        ACCESS:       7141 HIT:       1951 MISS:       5190
cpu0_STLB LOAD         ACCESS:       7141 HIT:       1951 MISS:       5190
cpu0_STLB RFO          ACCESS:          0 HIT:          0 MISS:          0
cpu0_STLB PREFETCH     ACCESS:          0 HIT:          0 MISS:          0
cpu0_STLB WRITE        ACCESS:          0 HIT:          0 MISS:          0
cpu0_STLB TRANSLATION  ACCESS:          0 HIT:          0 MISS:          0
cpu0_STLB PREFETCH REQUESTED:          0 ISSUED:          0 USEFUL:          0 USELESS:          0
cpu0_STLB AVERAGE MISS LATENCY: 174.5 cycles

DRAM Statistics

Channel 0 RQ ROW_BUFFER_HIT:     128014
  ROW_BUFFER_MISS:      81560
 AVG DBUS CONGESTED CYCLE: 3.585
WQ ROW_BUFFER_HIT: Channel 0 
  ROW_BUFFER_MISS:        522
  FULL:        747
