WARNING: physical memory size is smaller than virtual memory size.

*** ChampSim Multicore Out-of-Order Simulator ***
Warmup Instructions: 25000000
Simulation Instructions: 25000000
Number of CPUs: 1
Page size: 4096

Off-chip DRAM Size: 4 GiB Channels: 1 Width: 64-bit Data Race: 800 MT/s
Heartbeat CPU 0 instructions: 10000002 cycles: 2500068 heartbeat IPC: 4 cumulative IPC: 4 (Simulation time: 00 hr 00 min 30 sec)
Heartbeat CPU 0 instructions: 20000002 cycles: 5000068 heartbeat IPC: 4 cumulative IPC: 4 (Simulation time: 00 hr 01 min 04 sec)
Warmup finished CPU 0 instructions: 25000002 cycles: 6250069 cumulative IPC: 4 (Simulation time: 00 hr 01 min 21 sec)
Warmup complete CPU 0 instructions: 25000002 cycles: 6250069 cumulative IPC: 4 (Simulation time: 00 hr 01 min 21 sec)
Heartbeat CPU 0 instructions: 30000000 cycles: 21858708 heartbeat IPC: 0.5932 cumulative IPC: 0.3203 (Simulation time: 00 hr 03 min 19 sec)
Heartbeat CPU 0 instructions: 40000001 cycles: 53192971 heartbeat IPC: 0.3191 cumulative IPC: 0.3195 (Simulation time: 00 hr 07 min 28 sec)
Heartbeat CPU 0 instructions: 50000000 cycles: 84404397 heartbeat IPC: 0.3204 cumulative IPC: 0.3199 (Simulation time: 00 hr 11 min 40 sec)
Simulation finished CPU 0 instructions: 25000000 cycles: 78154334 cumulative IPC: 0.3199 (Simulation time: 00 hr 11 min 40 sec)
Simulation complete CPU 0 instructions: 25000000 cycles: 78154334 cumulative IPC: 0.3199 (Simulation time: 00 hr 11 min 40 sec)

ChampSim completed all CPUs

=== Simulation ===
CPU 0 runs ./traces/602.gcc_s-2226B.champsimtrace.xz
Region of Interest Statistics

CPU 0 cumulative IPC: 0.3199 instructions: 25000000 cycles: 78154334
CPU 0 Branch Prediction Accuracy: 98.44% MPKI: 5.548 Average ROB Occupancy at Mispredict: 65.89
Branch type MPKI
BRANCH_DIRECT_JUMP: 0.073
BRANCH_INDIRECT: 0
BRANCH_CONDITIONAL: 5.47
BRANCH_DIRECT_CALL: 8e-05
BRANCH_INDIRECT_CALL: 0
BRANCH_RETURN: 0

LLC TOTAL        ACCESS:    4906178 HIT:      36460 MISS:    4869718
LLC LOAD         ACCESS:    1622134 HIT:      20855 MISS:    1601279
LLC RFO          ACCESS:         10 HIT:          0 MISS:         10
LLC PREFETCH     ACCESS:    3274553 HIT:      12590 MISS:    3261963
LLC WRITE        ACCESS:       2762 HIT:       1991 MISS:        771
LLC TRANSLATION  ACCESS:       6719 HIT:       1024 MISS:       5695
LLC PREFETCH REQUESTED:          0 ISSUED:          0 USEFUL:          0 USELESS:          0
LLC AVERAGE MISS LATENCY: 206.1 cycles
cpu0_DTLB TOTAL        ACCESS:    3488273 HIT:    3143550 MISS:     344723
cpu0_DTLB LOAD         ACCESS:    3488273 HIT:    3143550 MISS:     344723
cpu0_DTLB RFO          ACCESS:          0 HIT:          0 MISS:          0
cpu0_DTLB PREFETCH     ACCESS:          0 HIT:          0 MISS:          0
cpu0_DTLB WRITE        ACCESS:          0 HIT:          0 MISS:          0
cpu0_DTLB TRANSLATION  ACCESS:          0 HIT:          0 MISS:          0
cpu0_DTLB PREFETCH REQUESTED:          0 ISSUED:          0 USEFUL:          0 USELESS:          0
cpu0_DTLB AVERAGE MISS LATENCY: 19.27 cycles
cpu0_ITLB TOTAL        ACCESS:          0 HIT:          0 MISS:          0
cpu0_ITLB LOAD         ACCESS:          0 HIT:          0 MISS:          0
cpu0_ITLB RFO          ACCESS:          0 HIT:          0 MISS:          0
cpu0_ITLB PREFETCH     ACCESS:          0 HIT:          0 MISS:          0
cpu0_ITLB WRITE        ACCESS:          0 HIT:          0 MISS:          0
cpu0_ITLB TRANSLATION  ACCESS:          0 HIT:          0 MISS:          0
cpu0_ITLB PREFETCH REQUESTED:          0 ISSUED:          0 USEFUL:          0 USELESS:          0
cpu0_ITLB AVERAGE MISS LATENCY: -nan cycles
cpu0_L1D TOTAL        ACCESS:    6327397 HIT:    2032679 MISS:    4294718
cpu0_L1D LOAD         ACCESS:    4230471 HIT:     814817 MISS:    3415654
cpu0_L1D RFO          ACCESS:          0 HIT:          0 MISS:          0
cpu0_L1D PREFETCH     ACCESS:    1721874 HIT:     850670 MISS:     871204
cpu0_L1D WRITE        ACCESS:     341669 HIT:     341650 MISS:         19
cpu0_L1D TRANSLATION  ACCESS:      33383 HIT:      25542 MISS:       7841
cpu0_L1D PREFETCH REQUESTED:   53754776 ISSUED:    1721867 USEFUL:      82507 USELESS:      59501
cpu0_L1D AVERAGE MISS LATENCY: 233.5 cycles
cpu0_L1I TOTAL        ACCESS:          0 HIT:          0 MISS:          0
cpu0_L1I LOAD         ACCESS:          0 HIT:          0 MISS:          0
cpu0_L1I RFO          ACCESS:          0 HIT:          0 MISS:          0
cpu0_L1I PREFETCH     ACCESS:          0 HIT:          0 MISS:          0
cpu0_L1I WRITE        ACCESS:          0 HIT:          0 MISS:          0
cpu0_L1I TRANSLATION  ACCESS:          0 HIT:          0 MISS:          0
cpu0_L1I PREFETCH REQUESTED:          0 ISSUED:          0 USEFUL:          0 USELESS:          0
cpu0_L1I AVERAGE MISS LATENCY: -nan cycles
cpu0_L2C TOTAL        ACCESS:    5846737 HIT:     119878 MISS:    5726859
cpu0_L2C LOAD         ACCESS:    1725651 HIT:      59385 MISS:    1666266
cpu0_L2C RFO          ACCESS:         10 HIT:          0 MISS:         10
cpu0_L2C PREFETCH     ACCESS:    4110057 HIT:      56193 MISS:    4053864
cpu0_L2C WRITE        ACCESS:       3200 HIT:       3200 MISS:          0
cpu0_L2C TRANSLATION  ACCESS:       7819 HIT:       1100 MISS:       6719
cpu0_L2C PREFETCH REQUESTED:    3968199 ISSUED:    3968048 USEFUL:      48726 USELESS:       6569
cpu0_L2C AVERAGE MISS LATENCY: 175.9 cycles
cpu0_STLB TOTAL        ACCESS:      33962 HIT:       1259 MISS:      32703
cpu0_STLB LOAD         ACCESS:      33962 HIT:       1259 MISS:      32703
cpu0_STLB RFO          ACCESS:          0 HIT:          0 MISS:          0
cpu0_STLB PREFETCH     ACCESS:          0 HIT:          0 MISS:          0
cpu0_STLB WRITE        ACCESS:          0 HIT:          0 MISS:          0
cpu0_STLB TRANSLATION  ACCESS:          0 HIT:          0 MISS:          0
cpu0_STLB PREFETCH REQUESTED:          0 ISSUED:          0 USEFUL:          0 USELESS:          0
cpu0_STLB AVERAGE MISS LATENCY: 328.6 cycles

DRAM Statistics

Channel 0 RQ ROW_BUFFER_HIT:    1629276
  ROW_BUFFER_MISS:     139317
 AVG DBUS CONGESTED CYCLE: 3.986
WQ ROW_BUFFER_HIT: Channel 0 
  ROW_BUFFER_MISS:        707
  FULL:       1982
