WARNING: physical memory size is smaller than virtual memory size.

*** ChampSim Multicore Out-of-Order Simulator ***
Warmup Instructions: 25000000
Simulation Instructions: 25000000
Number of CPUs: 1
Page size: 4096

Off-chip DRAM Size: 4 GiB Channels: 1 Width: 64-bit Data Race: 800 MT/s
Heartbeat CPU 0 instructions: 10000000 cycles: 2500105 heartbeat IPC: 4 cumulative IPC: 4 (Simulation time: 00 hr 00 min 34 sec)
Heartbeat CPU 0 instructions: 20000000 cycles: 5000105 heartbeat IPC: 4 cumulative IPC: 4 (Simulation time: 00 hr 01 min 10 sec)
Warmup finished CPU 0 instructions: 25000002 cycles: 6250109 cumulative IPC: 4 (Simulation time: 00 hr 01 min 29 sec)
Warmup complete CPU 0 instructions: 25000002 cycles: 6250109 cumulative IPC: 4 (Simulation time: 00 hr 01 min 29 sec)
Heartbeat CPU 0 instructions: 30000000 cycles: 15687978 heartbeat IPC: 0.9356 cumulative IPC: 0.5298 (Simulation time: 00 hr 02 min 54 sec)
Heartbeat CPU 0 instructions: 40000000 cycles: 36132016 heartbeat IPC: 0.4891 cumulative IPC: 0.502 (Simulation time: 00 hr 06 min 04 sec)
Heartbeat CPU 0 instructions: 50000000 cycles: 55592710 heartbeat IPC: 0.5139 cumulative IPC: 0.5067 (Simulation time: 00 hr 09 min 13 sec)
Simulation finished CPU 0 instructions: 25000002 cycles: 49342603 cumulative IPC: 0.5067 (Simulation time: 00 hr 09 min 13 sec)
Simulation complete CPU 0 instructions: 25000002 cycles: 49342603 cumulative IPC: 0.5067 (Simulation time: 00 hr 09 min 13 sec)

ChampSim completed all CPUs

=== Simulation ===
CPU 0 runs ./traces/603.bwaves_s-2931B.champsimtrace.xz
Region of Interest Statistics

CPU 0 cumulative IPC: 0.5067 instructions: 25000002 cycles: 49342603
CPU 0 Branch Prediction Accuracy: 80.62% MPKI: 1.636 Average ROB Occupancy at Mispredict: 341.2
Branch type MPKI
BRANCH_DIRECT_JUMP: 0
BRANCH_INDIRECT: 0
BRANCH_CONDITIONAL: 1.64
BRANCH_DIRECT_CALL: 0
BRANCH_INDIRECT_CALL: 0
BRANCH_RETURN: 0

LLC TOTAL        ACCESS:     534845 HIT:     109568 MISS:     425277
LLC LOAD         ACCESS:      20729 HIT:       2270 MISS:      18459
LLC RFO          ACCESS:     148842 HIT:          1 MISS:     148841
LLC PREFETCH     ACCESS:     215762 HIT:      21605 MISS:     194157
LLC WRITE        ACCESS:     149068 HIT:      85404 MISS:      63664
LLC TRANSLATION  ACCESS:        444 HIT:        288 MISS:        156
LLC PREFETCH REQUESTED:          0 ISSUED:          0 USEFUL:          0 USELESS:          0
LLC AVERAGE MISS LATENCY: 1367 cycles
cpu0_DTLB TOTAL        ACCESS:    5637482 HIT:    5598953 MISS:      38529
cpu0_DTLB LOAD         ACCESS:    5637482 HIT:    5598953 MISS:      38529
cpu0_DTLB RFO          ACCESS:          0 HIT:          0 MISS:          0
cpu0_DTLB PREFETCH     ACCESS:          0 HIT:          0 MISS:          0
cpu0_DTLB WRITE        ACCESS:          0 HIT:          0 MISS:          0
cpu0_DTLB TRANSLATION  ACCESS:          0 HIT:          0 MISS:          0
cpu0_DTLB PREFETCH REQUESTED:          0 ISSUED:          0 USEFUL:          0 USELESS:          0
cpu0_DTLB AVERAGE MISS LATENCY: 33.56 cycles
cpu0_ITLB TOTAL        ACCESS:          0 HIT:          0 MISS:          0
cpu0_ITLB LOAD         ACCESS:          0 HIT:          0 MISS:          0
cpu0_ITLB RFO          ACCESS:          0 HIT:          0 MISS:          0
cpu0_ITLB PREFETCH     ACCESS:          0 HIT:          0 MISS:          0
cpu0_ITLB WRITE        ACCESS:          0 HIT:          0 MISS:          0
cpu0_ITLB TRANSLATION  ACCESS:          0 HIT:          0 MISS:          0
cpu0_ITLB PREFETCH REQUESTED:          0 ISSUED:          0 USEFUL:          0 USELESS:          0
cpu0_ITLB AVERAGE MISS LATENCY: -nan cycles
cpu0_L1D TOTAL        ACCESS:    9022749 HIT:    7281685 MISS:    1741064
cpu0_L1D LOAD         ACCESS:    3263457 HIT:    2993618 MISS:     269839
cpu0_L1D RFO          ACCESS:          0 HIT:          0 MISS:          0
cpu0_L1D PREFETCH     ACCESS:    1309139 HIT:     843477 MISS:     465662
cpu0_L1D WRITE        ACCESS:    4444825 HIT:    3444587 MISS:    1000238
cpu0_L1D TRANSLATION  ACCESS:       5328 HIT:          3 MISS:       5325
cpu0_L1D PREFETCH REQUESTED:    3798753 ISSUED:    1309148 USEFUL:     247634 USELESS:       5356
cpu0_L1D AVERAGE MISS LATENCY: 222.9 cycles
cpu0_L1I TOTAL        ACCESS:          0 HIT:          0 MISS:          0
cpu0_L1I LOAD         ACCESS:          0 HIT:          0 MISS:          0
cpu0_L1I RFO          ACCESS:          0 HIT:          0 MISS:          0
cpu0_L1I PREFETCH     ACCESS:          0 HIT:          0 MISS:          0
cpu0_L1I WRITE        ACCESS:          0 HIT:          0 MISS:          0
cpu0_L1I TRANSLATION  ACCESS:          0 HIT:          0 MISS:          0
cpu0_L1I PREFETCH REQUESTED:          0 ISSUED:          0 USEFUL:          0 USELESS:          0
cpu0_L1I AVERAGE MISS LATENCY: -nan cycles
cpu0_L2C TOTAL        ACCESS:     706490 HIT:     318438 MISS:     388052
cpu0_L2C LOAD         ACCESS:      57839 HIT:      37028 MISS:      20811
cpu0_L2C RFO          ACCESS:     186083 HIT:      37241 MISS:     148842
cpu0_L2C PREFETCH     ACCESS:     268389 HIT:      50562 MISS:     217827
cpu0_L2C WRITE        ACCESS:     188854 HIT:     188726 MISS:        128
cpu0_L2C TRANSLATION  ACCESS:       5325 HIT:       4881 MISS:        444
cpu0_L2C PREFETCH REQUESTED:      15407 ISSUED:      15407 USEFUL:       9565 USELESS:        889
cpu0_L2C AVERAGE MISS LATENCY: 1517 cycles
cpu0_STLB TOTAL        ACCESS:      30831 HIT:      25517 MISS:       5314
cpu0_STLB LOAD         ACCESS:      30831 HIT:      25517 MISS:       5314
cpu0_STLB RFO          ACCESS:          0 HIT:          0 MISS:          0
cpu0_STLB PREFETCH     ACCESS:          0 HIT:          0 MISS:          0
cpu0_STLB WRITE        ACCESS:          0 HIT:          0 MISS:          0
cpu0_STLB TRANSLATION  ACCESS:          0 HIT:          0 MISS:          0
cpu0_STLB PREFETCH REQUESTED:          0 ISSUED:          0 USEFUL:          0 USELESS:          0
cpu0_STLB AVERAGE MISS LATENCY: 282.5 cycles

DRAM Statistics

Channel 0 RQ ROW_BUFFER_HIT:     213569
  ROW_BUFFER_MISS:     148031
 AVG DBUS CONGESTED CYCLE: 3.87
WQ ROW_BUFFER_HIT: Channel 0 
  ROW_BUFFER_MISS:       8856
  FULL:     137174
