WARNING: physical memory size is smaller than virtual memory size.

*** ChampSim Multicore Out-of-Order Simulator ***
Warmup Instructions: 25000000
Simulation Instructions: 25000000
Number of CPUs: 1
Page size: 4096

Off-chip DRAM Size: 4 GiB Channels: 1 Width: 64-bit Data Race: 800 MT/s
Heartbeat CPU 0 instructions: 10000003 cycles: 2500092 heartbeat IPC: 4 cumulative IPC: 4 (Simulation time: 00 hr 00 min 31 sec)
Heartbeat CPU 0 instructions: 20000003 cycles: 5000092 heartbeat IPC: 4 cumulative IPC: 4 (Simulation time: 00 hr 01 min 03 sec)
Warmup finished CPU 0 instructions: 25000003 cycles: 6250093 cumulative IPC: 4 (Simulation time: 00 hr 01 min 20 sec)
Warmup complete CPU 0 instructions: 25000003 cycles: 6250093 cumulative IPC: 4 (Simulation time: 00 hr 01 min 20 sec)
Heartbeat CPU 0 instructions: 30000003 cycles: 28196734 heartbeat IPC: 0.4311 cumulative IPC: 0.2278 (Simulation time: 00 hr 04 min 19 sec)
Heartbeat CPU 0 instructions: 40000000 cycles: 74126050 heartbeat IPC: 0.2177 cumulative IPC: 0.221 (Simulation time: 00 hr 10 min 54 sec)
Heartbeat CPU 0 instructions: 50000001 cycles: 93167124 heartbeat IPC: 0.5252 cumulative IPC: 0.2876 (Simulation time: 00 hr 13 min 54 sec)
Simulation finished CPU 0 instructions: 25000002 cycles: 86917033 cumulative IPC: 0.2876 (Simulation time: 00 hr 13 min 54 sec)
Simulation complete CPU 0 instructions: 25000002 cycles: 86917033 cumulative IPC: 0.2876 (Simulation time: 00 hr 13 min 54 sec)

ChampSim completed all CPUs

=== Simulation ===
CPU 0 runs ./traces/603.bwaves_s-891B.champsimtrace.xz
Region of Interest Statistics

CPU 0 cumulative IPC: 0.2876 instructions: 25000002 cycles: 86917033
CPU 0 Branch Prediction Accuracy: 78.12% MPKI: 22.74 Average ROB Occupancy at Mispredict: 290.8
Branch type MPKI
BRANCH_DIRECT_JUMP: 0
BRANCH_INDIRECT: 0
BRANCH_CONDITIONAL: 22.7
BRANCH_DIRECT_CALL: 0
BRANCH_INDIRECT_CALL: 0
BRANCH_RETURN: 0

LLC TOTAL        ACCESS:     843262 HIT:     173055 MISS:     670207
LLC LOAD         ACCESS:      10720 HIT:        252 MISS:      10468
LLC RFO          ACCESS:          1 HIT:          0 MISS:          1
LLC PREFETCH     ACCESS:     586568 HIT:        191 MISS:     586377
LLC WRITE        ACCESS:     245849 HIT:     172522 MISS:      73327
LLC TRANSLATION  ACCESS:        124 HIT:         90 MISS:         34
LLC PREFETCH REQUESTED:          0 ISSUED:          0 USEFUL:          0 USELESS:          0
LLC AVERAGE MISS LATENCY: 1531 cycles
cpu0_DTLB TOTAL        ACCESS:    5066617 HIT:    5013431 MISS:      53186
cpu0_DTLB LOAD         ACCESS:    5066617 HIT:    5013431 MISS:      53186
cpu0_DTLB RFO          ACCESS:          0 HIT:          0 MISS:          0
cpu0_DTLB PREFETCH     ACCESS:          0 HIT:          0 MISS:          0
cpu0_DTLB WRITE        ACCESS:          0 HIT:          0 MISS:          0
cpu0_DTLB TRANSLATION  ACCESS:          0 HIT:          0 MISS:          0
cpu0_DTLB PREFETCH REQUESTED:          0 ISSUED:          0 USEFUL:          0 USELESS:          0
cpu0_DTLB AVERAGE MISS LATENCY: 30.68 cycles
cpu0_ITLB TOTAL        ACCESS:          7 HIT:          7 MISS:          0
cpu0_ITLB LOAD         ACCESS:          7 HIT:          7 MISS:          0
cpu0_ITLB RFO          ACCESS:          0 HIT:          0 MISS:          0
cpu0_ITLB PREFETCH     ACCESS:          0 HIT:          0 MISS:          0
cpu0_ITLB WRITE        ACCESS:          0 HIT:          0 MISS:          0
cpu0_ITLB TRANSLATION  ACCESS:          0 HIT:          0 MISS:          0
cpu0_ITLB PREFETCH REQUESTED:          0 ISSUED:          0 USEFUL:          0 USELESS:          0
cpu0_ITLB AVERAGE MISS LATENCY: -nan cycles
cpu0_L1D TOTAL        ACCESS:    9226005 HIT:    3400119 MISS:    5825886
cpu0_L1D LOAD         ACCESS:    3944393 HIT:    1147175 MISS:    2797218
cpu0_L1D RFO          ACCESS:          0 HIT:          0 MISS:          0
cpu0_L1D PREFETCH     ACCESS:    3922784 HIT:     894662 MISS:    3028122
cpu0_L1D WRITE        ACCESS:    1349485 HIT:    1349139 MISS:        346
cpu0_L1D TRANSLATION  ACCESS:       9343 HIT:       9143 MISS:        200
cpu0_L1D PREFETCH REQUESTED:    3956950 ISSUED:    3922781 USEFUL:     581335 USELESS:        243
cpu0_L1D AVERAGE MISS LATENCY: 116.7 cycles
cpu0_L1I TOTAL        ACCESS:          9 HIT:          3 MISS:          6
cpu0_L1I LOAD         ACCESS:          9 HIT:          3 MISS:          6
cpu0_L1I RFO          ACCESS:          0 HIT:          0 MISS:          0
cpu0_L1I PREFETCH     ACCESS:          0 HIT:          0 MISS:          0
cpu0_L1I WRITE        ACCESS:          0 HIT:          0 MISS:          0
cpu0_L1I TRANSLATION  ACCESS:          0 HIT:          0 MISS:          0
cpu0_L1I PREFETCH REQUESTED:          0 ISSUED:          0 USEFUL:          0 USELESS:          0
cpu0_L1I AVERAGE MISS LATENCY: 1176 cycles
cpu0_L2C TOTAL        ACCESS:    1138494 HIT:     245379 MISS:     893115
cpu0_L2C LOAD         ACCESS:      15903 HIT:        597 MISS:      15306
cpu0_L2C RFO          ACCESS:        214 HIT:        213 MISS:          1
cpu0_L2C PREFETCH     ACCESS:     877903 HIT:        400 MISS:     877503
cpu0_L2C WRITE        ACCESS:     244274 HIT:     244093 MISS:        181
cpu0_L2C TRANSLATION  ACCESS:        200 HIT:         76 MISS:        124
cpu0_L2C PREFETCH REQUESTED:     296326 ISSUED:     296326 USEFUL:       6185 USELESS:      95995
cpu0_L2C AVERAGE MISS LATENCY: 1162 cycles
cpu0_STLB TOTAL        ACCESS:       9351 HIT:         26 MISS:       9325
cpu0_STLB LOAD         ACCESS:       9351 HIT:         26 MISS:       9325
cpu0_STLB RFO          ACCESS:          0 HIT:          0 MISS:          0
cpu0_STLB PREFETCH     ACCESS:          0 HIT:          0 MISS:          0
cpu0_STLB WRITE        ACCESS:          0 HIT:          0 MISS:          0
cpu0_STLB TRANSLATION  ACCESS:          0 HIT:          0 MISS:          0
cpu0_STLB PREFETCH REQUESTED:          0 ISSUED:          0 USEFUL:          0 USELESS:          0
cpu0_STLB AVERAGE MISS LATENCY: 211 cycles

DRAM Statistics

Channel 0 RQ ROW_BUFFER_HIT:     429727
  ROW_BUFFER_MISS:     167146
 AVG DBUS CONGESTED CYCLE: 3.989
WQ ROW_BUFFER_HIT: Channel 0 
  ROW_BUFFER_MISS:       4030
  FULL:     245408
