WARNING: physical memory size is smaller than virtual memory size.

*** ChampSim Multicore Out-of-Order Simulator ***
Warmup Instructions: 25000000
Simulation Instructions: 25000000
Number of CPUs: 1
Page size: 4096

Off-chip DRAM Size: 4 GiB Channels: 1 Width: 64-bit Data Race: 800 MT/s
Heartbeat CPU 0 instructions: 10000002 cycles: 2500136 heartbeat IPC: 4 cumulative IPC: 4 (Simulation time: 00 hr 00 min 32 sec)
Heartbeat CPU 0 instructions: 20000003 cycles: 5000151 heartbeat IPC: 4 cumulative IPC: 4 (Simulation time: 00 hr 01 min 07 sec)
Warmup finished CPU 0 instructions: 25000003 cycles: 6250152 cumulative IPC: 4 (Simulation time: 00 hr 01 min 25 sec)
Warmup complete CPU 0 instructions: 25000003 cycles: 6250152 cumulative IPC: 4 (Simulation time: 00 hr 01 min 25 sec)
Heartbeat CPU 0 instructions: 30000000 cycles: 14060167 heartbeat IPC: 1.104 cumulative IPC: 0.6402 (Simulation time: 00 hr 02 min 39 sec)
Heartbeat CPU 0 instructions: 40000001 cycles: 29734927 heartbeat IPC: 0.638 cumulative IPC: 0.6387 (Simulation time: 00 hr 05 min 14 sec)
Heartbeat CPU 0 instructions: 50000003 cycles: 45336365 heartbeat IPC: 0.641 cumulative IPC: 0.6396 (Simulation time: 00 hr 07 min 53 sec)
Simulation finished CPU 0 instructions: 25000000 cycles: 39086214 cumulative IPC: 0.6396 (Simulation time: 00 hr 07 min 53 sec)
Simulation complete CPU 0 instructions: 25000000 cycles: 39086214 cumulative IPC: 0.6396 (Simulation time: 00 hr 07 min 53 sec)

ChampSim completed all CPUs

=== Simulation ===
CPU 0 runs ./traces/603.bwaves_s-2609B.champsimtrace.xz
Region of Interest Statistics

CPU 0 cumulative IPC: 0.6396 instructions: 25000000 cycles: 39086214
CPU 0 Branch Prediction Accuracy: 81.23% MPKI: 4.685 Average ROB Occupancy at Mispredict: 300.6
Branch type MPKI
BRANCH_DIRECT_JUMP: 0
BRANCH_INDIRECT: 0
BRANCH_CONDITIONAL: 4.68
BRANCH_DIRECT_CALL: 0
BRANCH_INDIRECT_CALL: 0
BRANCH_RETURN: 0

LLC TOTAL        ACCESS:     503419 HIT:      24117 MISS:     479302
LLC LOAD         ACCESS:     236667 HIT:      10631 MISS:     226036
LLC RFO          ACCESS:      12181 HIT:          0 MISS:      12181
LLC PREFETCH     ACCESS:     242182 HIT:       1651 MISS:     240531
LLC WRITE        ACCESS:      12259 HIT:      11740 MISS:        519
LLC TRANSLATION  ACCESS:        130 HIT:         95 MISS:         35
LLC PREFETCH REQUESTED:          0 ISSUED:          0 USEFUL:          0 USELESS:          0
LLC AVERAGE MISS LATENCY: 1029 cycles
cpu0_DTLB TOTAL        ACCESS:    6671115 HIT:    6647376 MISS:      23739
cpu0_DTLB LOAD         ACCESS:    6671115 HIT:    6647376 MISS:      23739
cpu0_DTLB RFO          ACCESS:          0 HIT:          0 MISS:          0
cpu0_DTLB PREFETCH     ACCESS:          0 HIT:          0 MISS:          0
cpu0_DTLB WRITE        ACCESS:          0 HIT:          0 MISS:          0
cpu0_DTLB TRANSLATION  ACCESS:          0 HIT:          0 MISS:          0
cpu0_DTLB PREFETCH REQUESTED:          0 ISSUED:          0 USEFUL:          0 USELESS:          0
cpu0_DTLB AVERAGE MISS LATENCY: 56.96 cycles
cpu0_ITLB TOTAL        ACCESS:          0 HIT:          0 MISS:          0
cpu0_ITLB LOAD         ACCESS:          0 HIT:          0 MISS:          0
cpu0_ITLB RFO          ACCESS:          0 HIT:          0 MISS:          0
cpu0_ITLB PREFETCH     ACCESS:          0 HIT:          0 MISS:          0
cpu0_ITLB WRITE        ACCESS:          0 HIT:          0 MISS:          0
cpu0_ITLB TRANSLATION  ACCESS:          0 HIT:          0 MISS:          0
cpu0_ITLB PREFETCH REQUESTED:          0 ISSUED:          0 USEFUL:          0 USELESS:          0
cpu0_ITLB AVERAGE MISS LATENCY: -nan cycles
cpu0_L1D TOTAL        ACCESS:    9593890 HIT:    8364655 MISS:    1229235
cpu0_L1D LOAD         ACCESS:    6387701 HIT:    5630958 MISS:     756743
cpu0_L1D RFO          ACCESS:          0 HIT:          0 MISS:          0
cpu0_L1D PREFETCH     ACCESS:    1790394 HIT:    1388432 MISS:     401962
cpu0_L1D WRITE        ACCESS:    1408364 HIT:    1345005 MISS:      63359
cpu0_L1D TRANSLATION  ACCESS:       7431 HIT:        260 MISS:       7171
cpu0_L1D PREFETCH REQUESTED:    9479404 ISSUED:    1790401 USEFUL:     191991 USELESS:       6002
cpu0_L1D AVERAGE MISS LATENCY: 226 cycles
cpu0_L1I TOTAL        ACCESS:          0 HIT:          0 MISS:          0
cpu0_L1I LOAD         ACCESS:          0 HIT:          0 MISS:          0
cpu0_L1I RFO          ACCESS:          0 HIT:          0 MISS:          0
cpu0_L1I PREFETCH     ACCESS:          0 HIT:          0 MISS:          0
cpu0_L1I WRITE        ACCESS:          0 HIT:          0 MISS:          0
cpu0_L1I TRANSLATION  ACCESS:          0 HIT:          0 MISS:          0
cpu0_L1I PREFETCH REQUESTED:          0 ISSUED:          0 USEFUL:          0 USELESS:          0
cpu0_L1I AVERAGE MISS LATENCY: -nan cycles
cpu0_L2C TOTAL        ACCESS:     692851 HIT:     111376 MISS:     581475
cpu0_L2C LOAD         ACCESS:     311514 HIT:      46884 MISS:     264630
cpu0_L2C RFO          ACCESS:      14865 HIT:       2683 MISS:      12182
cpu0_L2C PREFETCH     ACCESS:     343008 HIT:      38563 MISS:     304445
cpu0_L2C WRITE        ACCESS:      16293 HIT:      16205 MISS:         88
cpu0_L2C TRANSLATION  ACCESS:       7171 HIT:       7041 MISS:        130
cpu0_L2C PREFETCH REQUESTED:     145007 ISSUED:     145007 USEFUL:      61419 USELESS:      11112
cpu0_L2C AVERAGE MISS LATENCY: 817.1 cycles
cpu0_STLB TOTAL        ACCESS:      13749 HIT:       6332 MISS:       7417
cpu0_STLB LOAD         ACCESS:      13749 HIT:       6332 MISS:       7417
cpu0_STLB RFO          ACCESS:          0 HIT:          0 MISS:          0
cpu0_STLB PREFETCH     ACCESS:          0 HIT:          0 MISS:          0
cpu0_STLB WRITE        ACCESS:          0 HIT:          0 MISS:          0
cpu0_STLB TRANSLATION  ACCESS:          0 HIT:          0 MISS:          0
cpu0_STLB PREFETCH REQUESTED:          0 ISSUED:          0 USEFUL:          0 USELESS:          0
cpu0_STLB AVERAGE MISS LATENCY: 220.2 cycles

DRAM Statistics

Channel 0 RQ ROW_BUFFER_HIT:     340306
  ROW_BUFFER_MISS:     135115
 AVG DBUS CONGESTED CYCLE: 3.76
WQ ROW_BUFFER_HIT: Channel 0 
  ROW_BUFFER_MISS:        886
  FULL:      11159
