WARNING: physical memory size is smaller than virtual memory size.

*** ChampSim Multicore Out-of-Order Simulator ***
Warmup Instructions: 25000000
Simulation Instructions: 25000000
Number of CPUs: 1
Page size: 4096

Off-chip DRAM Size: 4 GiB Channels: 1 Width: 64-bit Data Race: 800 MT/s
Heartbeat CPU 0 instructions: 10000003 cycles: 2500092 heartbeat IPC: 4 cumulative IPC: 4 (Simulation time: 00 hr 00 min 36 sec)
Heartbeat CPU 0 instructions: 20000003 cycles: 5000092 heartbeat IPC: 4 cumulative IPC: 4 (Simulation time: 00 hr 01 min 15 sec)
Warmup finished CPU 0 instructions: 25000003 cycles: 6250093 cumulative IPC: 4 (Simulation time: 00 hr 01 min 35 sec)
Warmup complete CPU 0 instructions: 25000003 cycles: 6250093 cumulative IPC: 4 (Simulation time: 00 hr 01 min 35 sec)
Heartbeat CPU 0 instructions: 30000003 cycles: 29450489 heartbeat IPC: 0.409 cumulative IPC: 0.2155 (Simulation time: 00 hr 05 min 26 sec)
Heartbeat CPU 0 instructions: 40000000 cycles: 76594025 heartbeat IPC: 0.2121 cumulative IPC: 0.2132 (Simulation time: 00 hr 13 min 48 sec)
Heartbeat CPU 0 instructions: 50000001 cycles: 96087544 heartbeat IPC: 0.513 cumulative IPC: 0.2783 (Simulation time: 00 hr 17 min 38 sec)
Simulation finished CPU 0 instructions: 25000002 cycles: 89837453 cumulative IPC: 0.2783 (Simulation time: 00 hr 17 min 38 sec)
Simulation complete CPU 0 instructions: 25000002 cycles: 89837453 cumulative IPC: 0.2783 (Simulation time: 00 hr 17 min 38 sec)

ChampSim completed all CPUs

=== Simulation ===
CPU 0 runs ./traces/603.bwaves_s-891B.champsimtrace.xz
Region of Interest Statistics

CPU 0 cumulative IPC: 0.2783 instructions: 25000002 cycles: 89837453
CPU 0 Branch Prediction Accuracy: 78.12% MPKI: 22.74 Average ROB Occupancy at Mispredict: 293.2
Branch type MPKI
BRANCH_DIRECT_JUMP: 0
BRANCH_INDIRECT: 0
BRANCH_CONDITIONAL: 22.7
BRANCH_DIRECT_CALL: 0
BRANCH_INDIRECT_CALL: 0
BRANCH_RETURN: 0

LLC TOTAL        ACCESS:     843256 HIT:     201414 MISS:     641842
LLC LOAD         ACCESS:      10528 HIT:        271 MISS:      10257
LLC RFO          ACCESS:          1 HIT:          0 MISS:          1
LLC PREFETCH     ACCESS:     586764 HIT:        211 MISS:     586553
LLC WRITE        ACCESS:     245840 HIT:     200843 MISS:      44997
LLC TRANSLATION  ACCESS:        123 HIT:         89 MISS:         34
LLC PREFETCH REQUESTED:          0 ISSUED:          0 USEFUL:          0 USELESS:          0
LLC AVERAGE MISS LATENCY: 1615 cycles
cpu0_DTLB TOTAL        ACCESS:    5070715 HIT:    5018107 MISS:      52608
cpu0_DTLB LOAD         ACCESS:    5070715 HIT:    5018107 MISS:      52608
cpu0_DTLB RFO          ACCESS:          0 HIT:          0 MISS:          0
cpu0_DTLB PREFETCH     ACCESS:          0 HIT:          0 MISS:          0
cpu0_DTLB WRITE        ACCESS:          0 HIT:          0 MISS:          0
cpu0_DTLB TRANSLATION  ACCESS:          0 HIT:          0 MISS:          0
cpu0_DTLB PREFETCH REQUESTED:          0 ISSUED:          0 USEFUL:          0 USELESS:          0
cpu0_DTLB AVERAGE MISS LATENCY: 31.12 cycles
cpu0_ITLB TOTAL        ACCESS:          7 HIT:          7 MISS:          0
cpu0_ITLB LOAD         ACCESS:          7 HIT:          7 MISS:          0
cpu0_ITLB RFO          ACCESS:          0 HIT:          0 MISS:          0
cpu0_ITLB PREFETCH     ACCESS:          0 HIT:          0 MISS:          0
cpu0_ITLB WRITE        ACCESS:          0 HIT:          0 MISS:          0
cpu0_ITLB TRANSLATION  ACCESS:          0 HIT:          0 MISS:          0
cpu0_ITLB PREFETCH REQUESTED:          0 ISSUED:          0 USEFUL:          0 USELESS:          0
cpu0_ITLB AVERAGE MISS LATENCY: -nan cycles
cpu0_L1D TOTAL        ACCESS:    9228684 HIT:    3362954 MISS:    5865730
cpu0_L1D LOAD         ACCESS:    3945207 HIT:    1119526 MISS:    2825681
cpu0_L1D RFO          ACCESS:          0 HIT:          0 MISS:          0
cpu0_L1D PREFETCH     ACCESS:    3924385 HIT:     884881 MISS:    3039504
cpu0_L1D WRITE        ACCESS:    1349749 HIT:    1349395 MISS:        354
cpu0_L1D TRANSLATION  ACCESS:       9343 HIT:       9152 MISS:        191
cpu0_L1D PREFETCH REQUESTED:    3959300 ISSUED:    3924382 USEFUL:     581641 USELESS:        239
cpu0_L1D AVERAGE MISS LATENCY: 115.3 cycles
cpu0_L1I TOTAL        ACCESS:          9 HIT:          3 MISS:          6
cpu0_L1I LOAD         ACCESS:          9 HIT:          3 MISS:          6
cpu0_L1I RFO          ACCESS:          0 HIT:          0 MISS:          0
cpu0_L1I PREFETCH     ACCESS:          0 HIT:          0 MISS:          0
cpu0_L1I WRITE        ACCESS:          0 HIT:          0 MISS:          0
cpu0_L1I TRANSLATION  ACCESS:          0 HIT:          0 MISS:          0
cpu0_L1I PREFETCH REQUESTED:          0 ISSUED:          0 USEFUL:          0 USELESS:          0
cpu0_L1I AVERAGE MISS LATENCY: 1441 cycles
cpu0_L2C TOTAL        ACCESS:    1138886 HIT:     245319 MISS:     893567
cpu0_L2C LOAD         ACCESS:      15588 HIT:        538 MISS:      15050
cpu0_L2C RFO          ACCESS:        214 HIT:        213 MISS:          1
cpu0_L2C PREFETCH     ACCESS:     878629 HIT:        409 MISS:     878220
cpu0_L2C WRITE        ACCESS:     244264 HIT:     244091 MISS:        173
cpu0_L2C TRANSLATION  ACCESS:        191 HIT:         68 MISS:        123
cpu0_L2C PREFETCH REQUESTED:     296750 ISSUED:     296750 USEFUL:       6104 USELESS:      96181
cpu0_L2C AVERAGE MISS LATENCY: 1173 cycles
cpu0_STLB TOTAL        ACCESS:       9351 HIT:         26 MISS:       9325
cpu0_STLB LOAD         ACCESS:       9351 HIT:         26 MISS:       9325
cpu0_STLB RFO          ACCESS:          0 HIT:          0 MISS:          0
cpu0_STLB PREFETCH     ACCESS:          0 HIT:          0 MISS:          0
cpu0_STLB WRITE        ACCESS:          0 HIT:          0 MISS:          0
cpu0_STLB TRANSLATION  ACCESS:          0 HIT:          0 MISS:          0
cpu0_STLB PREFETCH REQUESTED:          0 ISSUED:          0 USEFUL:          0 USELESS:          0
cpu0_STLB AVERAGE MISS LATENCY: 211.3 cycles

DRAM Statistics

Channel 0 RQ ROW_BUFFER_HIT:     431156
  ROW_BUFFER_MISS:     165682
 AVG DBUS CONGESTED CYCLE: 3.985
WQ ROW_BUFFER_HIT: Channel 0 
  ROW_BUFFER_MISS:       7128
  FULL:     260368
