WARNING: physical memory size is smaller than virtual memory size.

*** ChampSim Multicore Out-of-Order Simulator ***
Warmup Instructions: 25000000
Simulation Instructions: 25000000
Number of CPUs: 1
Page size: 4096

Off-chip DRAM Size: 4 GiB Channels: 1 Width: 64-bit Data Race: 800 MT/s
Heartbeat CPU 0 instructions: 10000003 cycles: 2500157 heartbeat IPC: 4 cumulative IPC: 4 (Simulation time: 00 hr 00 min 42 sec)
Heartbeat CPU 0 instructions: 20000003 cycles: 5000157 heartbeat IPC: 4 cumulative IPC: 4 (Simulation time: 00 hr 01 min 22 sec)
Warmup finished CPU 0 instructions: 25000003 cycles: 6250158 cumulative IPC: 4 (Simulation time: 00 hr 01 min 42 sec)
Warmup complete CPU 0 instructions: 25000003 cycles: 6250158 cumulative IPC: 4 (Simulation time: 00 hr 01 min 42 sec)
Heartbeat CPU 0 instructions: 30000003 cycles: 14055349 heartbeat IPC: 1.104 cumulative IPC: 0.6406 (Simulation time: 00 hr 03 min 02 sec)
Heartbeat CPU 0 instructions: 40000000 cycles: 29720505 heartbeat IPC: 0.6384 cumulative IPC: 0.6391 (Simulation time: 00 hr 05 min 48 sec)
Heartbeat CPU 0 instructions: 50000000 cycles: 45360578 heartbeat IPC: 0.6394 cumulative IPC: 0.6392 (Simulation time: 00 hr 08 min 54 sec)
Simulation finished CPU 0 instructions: 25000001 cycles: 39110422 cumulative IPC: 0.6392 (Simulation time: 00 hr 08 min 54 sec)
Simulation complete CPU 0 instructions: 25000001 cycles: 39110422 cumulative IPC: 0.6392 (Simulation time: 00 hr 08 min 54 sec)

ChampSim completed all CPUs

=== Simulation ===
CPU 0 runs ./traces/603.bwaves_s-1740B.champsimtrace.xz
Region of Interest Statistics

CPU 0 cumulative IPC: 0.6392 instructions: 25000001 cycles: 39110422
CPU 0 Branch Prediction Accuracy: 81.23% MPKI: 4.685 Average ROB Occupancy at Mispredict: 300.7
Branch type MPKI
BRANCH_DIRECT_JUMP: 0
BRANCH_INDIRECT: 0
BRANCH_CONDITIONAL: 4.68
BRANCH_DIRECT_CALL: 0
BRANCH_INDIRECT_CALL: 0
BRANCH_RETURN: 0

LLC TOTAL        ACCESS:     503663 HIT:      24305 MISS:     479358
LLC LOAD         ACCESS:     235975 HIT:      10750 MISS:     225225
LLC RFO          ACCESS:      12181 HIT:          0 MISS:      12181
LLC PREFETCH     ACCESS:     242976 HIT:       1597 MISS:     241379
LLC WRITE        ACCESS:      12263 HIT:      11722 MISS:        541
LLC TRANSLATION  ACCESS:        268 HIT:        236 MISS:         32
LLC PREFETCH REQUESTED:          0 ISSUED:          0 USEFUL:          0 USELESS:          0
LLC AVERAGE MISS LATENCY: 1029 cycles
cpu0_DTLB TOTAL        ACCESS:    6669072 HIT:    6625119 MISS:      43953
cpu0_DTLB LOAD         ACCESS:    6669072 HIT:    6625119 MISS:      43953
cpu0_DTLB RFO          ACCESS:          0 HIT:          0 MISS:          0
cpu0_DTLB PREFETCH     ACCESS:          0 HIT:          0 MISS:          0
cpu0_DTLB WRITE        ACCESS:          0 HIT:          0 MISS:          0
cpu0_DTLB TRANSLATION  ACCESS:          0 HIT:          0 MISS:          0
cpu0_DTLB PREFETCH REQUESTED:          0 ISSUED:          0 USEFUL:          0 USELESS:          0
cpu0_DTLB AVERAGE MISS LATENCY: 33.86 cycles
cpu0_ITLB TOTAL        ACCESS:          0 HIT:          0 MISS:          0
cpu0_ITLB LOAD         ACCESS:          0 HIT:          0 MISS:          0
cpu0_ITLB RFO          ACCESS:          0 HIT:          0 MISS:          0
cpu0_ITLB PREFETCH     ACCESS:          0 HIT:          0 MISS:          0
cpu0_ITLB WRITE        ACCESS:          0 HIT:          0 MISS:          0
cpu0_ITLB TRANSLATION  ACCESS:          0 HIT:          0 MISS:          0
cpu0_ITLB PREFETCH REQUESTED:          0 ISSUED:          0 USEFUL:          0 USELESS:          0
cpu0_ITLB AVERAGE MISS LATENCY: -nan cycles
cpu0_L1D TOTAL        ACCESS:    9585674 HIT:    8361687 MISS:    1223987
cpu0_L1D LOAD         ACCESS:    6383925 HIT:    5629416 MISS:     754509
cpu0_L1D RFO          ACCESS:          0 HIT:          0 MISS:          0
cpu0_L1D PREFETCH     ACCESS:    1785956 HIT:    1386853 MISS:     399103
cpu0_L1D WRITE        ACCESS:    1408357 HIT:    1345258 MISS:      63099
cpu0_L1D TRANSLATION  ACCESS:       7436 HIT:        160 MISS:       7276
cpu0_L1D PREFETCH REQUESTED:    9427199 ISSUED:    1785956 USEFUL:     191766 USELESS:       6036
cpu0_L1D AVERAGE MISS LATENCY: 227.2 cycles
cpu0_L1I TOTAL        ACCESS:          0 HIT:          0 MISS:          0
cpu0_L1I LOAD         ACCESS:          0 HIT:          0 MISS:          0
cpu0_L1I RFO          ACCESS:          0 HIT:          0 MISS:          0
cpu0_L1I PREFETCH     ACCESS:          0 HIT:          0 MISS:          0
cpu0_L1I WRITE        ACCESS:          0 HIT:          0 MISS:          0
cpu0_L1I TRANSLATION  ACCESS:          0 HIT:          0 MISS:          0
cpu0_L1I PREFETCH REQUESTED:          0 ISSUED:          0 USEFUL:          0 USELESS:          0
cpu0_L1I AVERAGE MISS LATENCY: -nan cycles
cpu0_L2C TOTAL        ACCESS:     695357 HIT:     112321 MISS:     583036
cpu0_L2C LOAD         ACCESS:     311689 HIT:      47327 MISS:     264362
cpu0_L2C RFO          ACCESS:      14871 HIT:       2690 MISS:      12181
cpu0_L2C PREFETCH     ACCESS:     345264 HIT:      39131 MISS:     306133
cpu0_L2C WRITE        ACCESS:      16257 HIT:      16165 MISS:         92
cpu0_L2C TRANSLATION  ACCESS:       7276 HIT:       7008 MISS:        268
cpu0_L2C PREFETCH REQUESTED:     147484 ISSUED:     147484 USEFUL:      62541 USELESS:      11739
cpu0_L2C AVERAGE MISS LATENCY: 814.6 cycles
cpu0_STLB TOTAL        ACCESS:      30821 HIT:      23397 MISS:       7424
cpu0_STLB LOAD         ACCESS:      30821 HIT:      23397 MISS:       7424
cpu0_STLB RFO          ACCESS:          0 HIT:          0 MISS:          0
cpu0_STLB PREFETCH     ACCESS:          0 HIT:          0 MISS:          0
cpu0_STLB WRITE        ACCESS:          0 HIT:          0 MISS:          0
cpu0_STLB TRANSLATION  ACCESS:          0 HIT:          0 MISS:          0
cpu0_STLB PREFETCH REQUESTED:          0 ISSUED:          0 USEFUL:          0 USELESS:          0
cpu0_STLB AVERAGE MISS LATENCY: 220 cycles

DRAM Statistics

Channel 0 RQ ROW_BUFFER_HIT:     340071
  ROW_BUFFER_MISS:     135327
 AVG DBUS CONGESTED CYCLE: 3.762
WQ ROW_BUFFER_HIT: Channel 0 
  ROW_BUFFER_MISS:        961
  FULL:      11190
