WARNING: physical memory size is smaller than virtual memory size.

*** ChampSim Multicore Out-of-Order Simulator ***
Warmup Instructions: 25000000
Simulation Instructions: 25000000
Number of CPUs: 1
Page size: 4096

Off-chip DRAM Size: 4 GiB Channels: 1 Width: 64-bit Data Race: 800 MT/s
Heartbeat CPU 0 instructions: 10000000 cycles: 2500105 heartbeat IPC: 4 cumulative IPC: 4 (Simulation time: 00 hr 00 min 40 sec)
Heartbeat CPU 0 instructions: 20000000 cycles: 5000105 heartbeat IPC: 4 cumulative IPC: 4 (Simulation time: 00 hr 01 min 25 sec)
Warmup finished CPU 0 instructions: 25000002 cycles: 6250109 cumulative IPC: 4 (Simulation time: 00 hr 01 min 47 sec)
Warmup complete CPU 0 instructions: 25000002 cycles: 6250109 cumulative IPC: 4 (Simulation time: 00 hr 01 min 47 sec)
Heartbeat CPU 0 instructions: 30000000 cycles: 15884358 heartbeat IPC: 0.9188 cumulative IPC: 0.519 (Simulation time: 00 hr 03 min 31 sec)
Heartbeat CPU 0 instructions: 40000003 cycles: 36343796 heartbeat IPC: 0.4888 cumulative IPC: 0.4984 (Simulation time: 00 hr 07 min 21 sec)
Heartbeat CPU 0 instructions: 50000000 cycles: 55758235 heartbeat IPC: 0.5151 cumulative IPC: 0.505 (Simulation time: 00 hr 11 min 08 sec)
Simulation finished CPU 0 instructions: 25000002 cycles: 49508128 cumulative IPC: 0.505 (Simulation time: 00 hr 11 min 08 sec)
Simulation complete CPU 0 instructions: 25000002 cycles: 49508128 cumulative IPC: 0.505 (Simulation time: 00 hr 11 min 08 sec)

ChampSim completed all CPUs

=== Simulation ===
CPU 0 runs ./traces/603.bwaves_s-2931B.champsimtrace.xz
Region of Interest Statistics

CPU 0 cumulative IPC: 0.505 instructions: 25000002 cycles: 49508128
CPU 0 Branch Prediction Accuracy: 80.62% MPKI: 1.636 Average ROB Occupancy at Mispredict: 341.1
Branch type MPKI
BRANCH_DIRECT_JUMP: 0
BRANCH_INDIRECT: 0
BRANCH_CONDITIONAL: 1.64
BRANCH_DIRECT_CALL: 0
BRANCH_INDIRECT_CALL: 0
BRANCH_RETURN: 0

LLC TOTAL        ACCESS:     534856 HIT:     131175 MISS:     403681
LLC LOAD         ACCESS:      20969 HIT:       2503 MISS:      18466
LLC RFO          ACCESS:     148842 HIT:          1 MISS:     148841
LLC PREFETCH     ACCESS:     215546 HIT:      24167 MISS:     191379
LLC WRITE        ACCESS:     149062 HIT:     104223 MISS:      44839
LLC TRANSLATION  ACCESS:        437 HIT:        281 MISS:        156
LLC PREFETCH REQUESTED:          0 ISSUED:          0 USEFUL:          0 USELESS:          0
LLC AVERAGE MISS LATENCY: 1438 cycles
cpu0_DTLB TOTAL        ACCESS:    5647081 HIT:    5608685 MISS:      38396
cpu0_DTLB LOAD         ACCESS:    5647081 HIT:    5608685 MISS:      38396
cpu0_DTLB RFO          ACCESS:          0 HIT:          0 MISS:          0
cpu0_DTLB PREFETCH     ACCESS:          0 HIT:          0 MISS:          0
cpu0_DTLB WRITE        ACCESS:          0 HIT:          0 MISS:          0
cpu0_DTLB TRANSLATION  ACCESS:          0 HIT:          0 MISS:          0
cpu0_DTLB PREFETCH REQUESTED:          0 ISSUED:          0 USEFUL:          0 USELESS:          0
cpu0_DTLB AVERAGE MISS LATENCY: 33.77 cycles
cpu0_ITLB TOTAL        ACCESS:          0 HIT:          0 MISS:          0
cpu0_ITLB LOAD         ACCESS:          0 HIT:          0 MISS:          0
cpu0_ITLB RFO          ACCESS:          0 HIT:          0 MISS:          0
cpu0_ITLB PREFETCH     ACCESS:          0 HIT:          0 MISS:          0
cpu0_ITLB WRITE        ACCESS:          0 HIT:          0 MISS:          0
cpu0_ITLB TRANSLATION  ACCESS:          0 HIT:          0 MISS:          0
cpu0_ITLB PREFETCH REQUESTED:          0 ISSUED:          0 USEFUL:          0 USELESS:          0
cpu0_ITLB AVERAGE MISS LATENCY: -nan cycles
cpu0_L1D TOTAL        ACCESS:    9038857 HIT:    7305553 MISS:    1733304
cpu0_L1D LOAD         ACCESS:    3273195 HIT:    3006173 MISS:     267022
cpu0_L1D RFO          ACCESS:          0 HIT:          0 MISS:          0
cpu0_L1D PREFETCH     ACCESS:    1308649 HIT:     848517 MISS:     460132
cpu0_L1D WRITE        ACCESS:    4451685 HIT:    3450860 MISS:    1000825
cpu0_L1D TRANSLATION  ACCESS:       5328 HIT:          3 MISS:       5325
cpu0_L1D PREFETCH REQUESTED:    3781642 ISSUED:    1308658 USEFUL:     247283 USELESS:       5328
cpu0_L1D AVERAGE MISS LATENCY: 224 cycles
cpu0_L1I TOTAL        ACCESS:          0 HIT:          0 MISS:          0
cpu0_L1I LOAD         ACCESS:          0 HIT:          0 MISS:          0
cpu0_L1I RFO          ACCESS:          0 HIT:          0 MISS:          0
cpu0_L1I PREFETCH     ACCESS:          0 HIT:          0 MISS:          0
cpu0_L1I WRITE        ACCESS:          0 HIT:          0 MISS:          0
cpu0_L1I TRANSLATION  ACCESS:          0 HIT:          0 MISS:          0
cpu0_L1I PREFETCH REQUESTED:          0 ISSUED:          0 USEFUL:          0 USELESS:          0
cpu0_L1I AVERAGE MISS LATENCY: -nan cycles
cpu0_L2C TOTAL        ACCESS:     705790 HIT:     317727 MISS:     388063
cpu0_L2C LOAD         ACCESS:      58017 HIT:      36959 MISS:      21058
cpu0_L2C RFO          ACCESS:     185659 HIT:      36817 MISS:     148842
cpu0_L2C PREFETCH     ACCESS:     268452 HIT:      50852 MISS:     217600
cpu0_L2C WRITE        ACCESS:     188337 HIT:     188211 MISS:        126
cpu0_L2C TRANSLATION  ACCESS:       5325 HIT:       4888 MISS:        437
cpu0_L2C PREFETCH REQUESTED:      15845 ISSUED:      15845 USEFUL:       9843 USELESS:        855
cpu0_L2C AVERAGE MISS LATENCY: 1514 cycles
cpu0_STLB TOTAL        ACCESS:      30892 HIT:      25578 MISS:       5314
cpu0_STLB LOAD         ACCESS:      30892 HIT:      25578 MISS:       5314
cpu0_STLB RFO          ACCESS:          0 HIT:          0 MISS:          0
cpu0_STLB PREFETCH     ACCESS:          0 HIT:          0 MISS:          0
cpu0_STLB WRITE        ACCESS:          0 HIT:          0 MISS:          0
cpu0_STLB TRANSLATION  ACCESS:          0 HIT:          0 MISS:          0
cpu0_STLB PREFETCH REQUESTED:          0 ISSUED:          0 USEFUL:          0 USELESS:          0
cpu0_STLB AVERAGE MISS LATENCY: 276.9 cycles

DRAM Statistics

Channel 0 RQ ROW_BUFFER_HIT:     214749
  ROW_BUFFER_MISS:     144085
 AVG DBUS CONGESTED CYCLE: 3.868
WQ ROW_BUFFER_HIT: Channel 0 
  ROW_BUFFER_MISS:      10692
  FULL:     137728
