WARNING: physical memory size is smaller than virtual memory size.

*** ChampSim Multicore Out-of-Order Simulator ***
Warmup Instructions: 25000000
Simulation Instructions: 25000000
Number of CPUs: 1
Page size: 4096

Off-chip DRAM Size: 4 GiB Channels: 1 Width: 64-bit Data Race: 800 MT/s
Heartbeat CPU 0 instructions: 10000002 cycles: 2500136 heartbeat IPC: 4 cumulative IPC: 4 (Simulation time: 00 hr 00 min 42 sec)
Heartbeat CPU 0 instructions: 20000003 cycles: 5000153 heartbeat IPC: 4 cumulative IPC: 4 (Simulation time: 00 hr 01 min 23 sec)
Warmup finished CPU 0 instructions: 25000003 cycles: 6250154 cumulative IPC: 4 (Simulation time: 00 hr 01 min 43 sec)
Warmup complete CPU 0 instructions: 25000003 cycles: 6250154 cumulative IPC: 4 (Simulation time: 00 hr 01 min 43 sec)
Heartbeat CPU 0 instructions: 30000000 cycles: 14059117 heartbeat IPC: 1.104 cumulative IPC: 0.6403 (Simulation time: 00 hr 03 min 04 sec)
Heartbeat CPU 0 instructions: 40000001 cycles: 29701337 heartbeat IPC: 0.6393 cumulative IPC: 0.6396 (Simulation time: 00 hr 05 min 50 sec)
Heartbeat CPU 0 instructions: 50000003 cycles: 45287560 heartbeat IPC: 0.6416 cumulative IPC: 0.6404 (Simulation time: 00 hr 08 min 55 sec)
Simulation finished CPU 0 instructions: 25000000 cycles: 39037407 cumulative IPC: 0.6404 (Simulation time: 00 hr 08 min 55 sec)
Simulation complete CPU 0 instructions: 25000000 cycles: 39037407 cumulative IPC: 0.6404 (Simulation time: 00 hr 08 min 55 sec)

ChampSim completed all CPUs

=== Simulation ===
CPU 0 runs ./traces/603.bwaves_s-2609B.champsimtrace.xz
Region of Interest Statistics

CPU 0 cumulative IPC: 0.6404 instructions: 25000000 cycles: 39037407
CPU 0 Branch Prediction Accuracy: 81.23% MPKI: 4.685 Average ROB Occupancy at Mispredict: 300.6
Branch type MPKI
BRANCH_DIRECT_JUMP: 0
BRANCH_INDIRECT: 0
BRANCH_CONDITIONAL: 4.68
BRANCH_DIRECT_CALL: 0
BRANCH_INDIRECT_CALL: 0
BRANCH_RETURN: 0

LLC TOTAL        ACCESS:     503695 HIT:      22037 MISS:     481658
LLC LOAD         ACCESS:     236338 HIT:      10780 MISS:     225558
LLC RFO          ACCESS:      12181 HIT:          0 MISS:      12181
LLC PREFETCH     ACCESS:     242793 HIT:       1591 MISS:     241202
LLC WRITE        ACCESS:      12255 HIT:       9571 MISS:       2684
LLC TRANSLATION  ACCESS:        128 HIT:         95 MISS:         33
LLC PREFETCH REQUESTED:          0 ISSUED:          0 USEFUL:          0 USELESS:          0
LLC AVERAGE MISS LATENCY: 1022 cycles
cpu0_DTLB TOTAL        ACCESS:    6671197 HIT:    6647452 MISS:      23745
cpu0_DTLB LOAD         ACCESS:    6671197 HIT:    6647452 MISS:      23745
cpu0_DTLB RFO          ACCESS:          0 HIT:          0 MISS:          0
cpu0_DTLB PREFETCH     ACCESS:          0 HIT:          0 MISS:          0
cpu0_DTLB WRITE        ACCESS:          0 HIT:          0 MISS:          0
cpu0_DTLB TRANSLATION  ACCESS:          0 HIT:          0 MISS:          0
cpu0_DTLB PREFETCH REQUESTED:          0 ISSUED:          0 USEFUL:          0 USELESS:          0
cpu0_DTLB AVERAGE MISS LATENCY: 57.04 cycles
cpu0_ITLB TOTAL        ACCESS:          0 HIT:          0 MISS:          0
cpu0_ITLB LOAD         ACCESS:          0 HIT:          0 MISS:          0
cpu0_ITLB RFO          ACCESS:          0 HIT:          0 MISS:          0
cpu0_ITLB PREFETCH     ACCESS:          0 HIT:          0 MISS:          0
cpu0_ITLB WRITE        ACCESS:          0 HIT:          0 MISS:          0
cpu0_ITLB TRANSLATION  ACCESS:          0 HIT:          0 MISS:          0
cpu0_ITLB PREFETCH REQUESTED:          0 ISSUED:          0 USEFUL:          0 USELESS:          0
cpu0_ITLB AVERAGE MISS LATENCY: -nan cycles
cpu0_L1D TOTAL        ACCESS:    9592628 HIT:    8365294 MISS:    1227334
cpu0_L1D LOAD         ACCESS:    6388015 HIT:    5632473 MISS:     755542
cpu0_L1D RFO          ACCESS:          0 HIT:          0 MISS:          0
cpu0_L1D PREFETCH     ACCESS:    1788818 HIT:    1387564 MISS:     401254
cpu0_L1D WRITE        ACCESS:    1408364 HIT:    1344997 MISS:      63367
cpu0_L1D TRANSLATION  ACCESS:       7431 HIT:        260 MISS:       7171
cpu0_L1D PREFETCH REQUESTED:    9477585 ISSUED:    1788825 USEFUL:     191758 USELESS:       5974
cpu0_L1D AVERAGE MISS LATENCY: 226 cycles
cpu0_L1I TOTAL        ACCESS:          0 HIT:          0 MISS:          0
cpu0_L1I LOAD         ACCESS:          0 HIT:          0 MISS:          0
cpu0_L1I RFO          ACCESS:          0 HIT:          0 MISS:          0
cpu0_L1I PREFETCH     ACCESS:          0 HIT:          0 MISS:          0
cpu0_L1I WRITE        ACCESS:          0 HIT:          0 MISS:          0
cpu0_L1I TRANSLATION  ACCESS:          0 HIT:          0 MISS:          0
cpu0_L1I PREFETCH REQUESTED:          0 ISSUED:          0 USEFUL:          0 USELESS:          0
cpu0_L1I AVERAGE MISS LATENCY: -nan cycles
cpu0_L2C TOTAL        ACCESS:     694620 HIT:     111420 MISS:     583200
cpu0_L2C LOAD         ACCESS:     311751 HIT:      46989 MISS:     264762
cpu0_L2C RFO          ACCESS:      14869 HIT:       2687 MISS:      12182
cpu0_L2C PREFETCH     ACCESS:     344516 HIT:      38472 MISS:     306044
cpu0_L2C WRITE        ACCESS:      16313 HIT:      16229 MISS:         84
cpu0_L2C TRANSLATION  ACCESS:       7171 HIT:       7043 MISS:        128
cpu0_L2C PREFETCH REQUESTED:     146778 ISSUED:     146778 USEFUL:      62003 USELESS:      11340
cpu0_L2C AVERAGE MISS LATENCY: 812.7 cycles
cpu0_STLB TOTAL        ACCESS:      13766 HIT:       6349 MISS:       7417
cpu0_STLB LOAD         ACCESS:      13766 HIT:       6349 MISS:       7417
cpu0_STLB RFO          ACCESS:          0 HIT:          0 MISS:          0
cpu0_STLB PREFETCH     ACCESS:          0 HIT:          0 MISS:          0
cpu0_STLB WRITE        ACCESS:          0 HIT:          0 MISS:          0
cpu0_STLB TRANSLATION  ACCESS:          0 HIT:          0 MISS:          0
cpu0_STLB PREFETCH REQUESTED:          0 ISSUED:          0 USEFUL:          0 USELESS:          0
cpu0_STLB AVERAGE MISS LATENCY: 219.1 cycles

DRAM Statistics

Channel 0 RQ ROW_BUFFER_HIT:     340662
  ROW_BUFFER_MISS:     134833
 AVG DBUS CONGESTED CYCLE: 3.762
WQ ROW_BUFFER_HIT: Channel 0 
  ROW_BUFFER_MISS:        374
  FULL:      11799
