WARNING: physical memory size is smaller than virtual memory size.

*** ChampSim Multicore Out-of-Order Simulator ***
Warmup Instructions: 25000000
Simulation Instructions: 25000000
Number of CPUs: 1
Page size: 4096

Off-chip DRAM Size: 4 GiB Channels: 1 Width: 64-bit Data Race: 800 MT/s
Heartbeat CPU 0 instructions: 10000000 cycles: 3018797 heartbeat IPC: 3.313 cumulative IPC: 3.313 (Simulation time: 00 hr 00 min 45 sec)
Heartbeat CPU 0 instructions: 20000000 cycles: 5881282 heartbeat IPC: 3.493 cumulative IPC: 3.401 (Simulation time: 00 hr 01 min 30 sec)
Warmup finished CPU 0 instructions: 25000002 cycles: 7240805 cumulative IPC: 3.453 (Simulation time: 00 hr 01 min 55 sec)
Warmup complete CPU 0 instructions: 25000002 cycles: 7240805 cumulative IPC: 3.453 (Simulation time: 00 hr 01 min 55 sec)
Heartbeat CPU 0 instructions: 30000000 cycles: 30500809 heartbeat IPC: 0.4062 cumulative IPC: 0.215 (Simulation time: 00 hr 05 min 05 sec)
Heartbeat CPU 0 instructions: 40000002 cycles: 58361860 heartbeat IPC: 0.3589 cumulative IPC: 0.2934 (Simulation time: 00 hr 09 min 19 sec)
Heartbeat CPU 0 instructions: 50000000 cycles: 91249137 heartbeat IPC: 0.3041 cumulative IPC: 0.2976 (Simulation time: 00 hr 14 min 22 sec)
Simulation finished CPU 0 instructions: 25000002 cycles: 84008334 cumulative IPC: 0.2976 (Simulation time: 00 hr 14 min 22 sec)
Simulation complete CPU 0 instructions: 25000002 cycles: 84008334 cumulative IPC: 0.2976 (Simulation time: 00 hr 14 min 22 sec)

ChampSim completed all CPUs

=== Simulation ===
CPU 0 runs ./traces/605.mcf_s-472B.champsimtrace.xz
Region of Interest Statistics

CPU 0 cumulative IPC: 0.2976 instructions: 25000002 cycles: 84008334
CPU 0 Branch Prediction Accuracy: 97.33% MPKI: 2.992 Average ROB Occupancy at Mispredict: 77.09
Branch type MPKI
BRANCH_DIRECT_JUMP: 0
BRANCH_INDIRECT: 0
BRANCH_CONDITIONAL: 2.99
BRANCH_DIRECT_CALL: 0
BRANCH_INDIRECT_CALL: 0
BRANCH_RETURN: 0

LLC TOTAL        ACCESS:    1952302 HIT:     273139 MISS:    1679163
LLC LOAD         ACCESS:     988119 HIT:      70649 MISS:     917470
LLC RFO          ACCESS:      54818 HIT:         67 MISS:      54751
LLC PREFETCH     ACCESS:     776079 HIT:      73802 MISS:     702277
LLC WRITE        ACCESS:     130089 HIT:     127208 MISS:       2881
LLC TRANSLATION  ACCESS:       3197 HIT:       1413 MISS:       1784
LLC PREFETCH REQUESTED:          0 ISSUED:          0 USEFUL:          0 USELESS:          0
LLC AVERAGE MISS LATENCY: 715.2 cycles
cpu0_DTLB TOTAL        ACCESS:    7567482 HIT:    7391736 MISS:     175746
cpu0_DTLB LOAD         ACCESS:    7567482 HIT:    7391736 MISS:     175746
cpu0_DTLB RFO          ACCESS:          0 HIT:          0 MISS:          0
cpu0_DTLB PREFETCH     ACCESS:          0 HIT:          0 MISS:          0
cpu0_DTLB WRITE        ACCESS:          0 HIT:          0 MISS:          0
cpu0_DTLB TRANSLATION  ACCESS:          0 HIT:          0 MISS:          0
cpu0_DTLB PREFETCH REQUESTED:          0 ISSUED:          0 USEFUL:          0 USELESS:          0
cpu0_DTLB AVERAGE MISS LATENCY: 22.03 cycles
cpu0_ITLB TOTAL        ACCESS:          0 HIT:          0 MISS:          0
cpu0_ITLB LOAD         ACCESS:          0 HIT:          0 MISS:          0
cpu0_ITLB RFO          ACCESS:          0 HIT:          0 MISS:          0
cpu0_ITLB PREFETCH     ACCESS:          0 HIT:          0 MISS:          0
cpu0_ITLB WRITE        ACCESS:          0 HIT:          0 MISS:          0
cpu0_ITLB TRANSLATION  ACCESS:          0 HIT:          0 MISS:          0
cpu0_ITLB PREFETCH REQUESTED:          0 ISSUED:          0 USEFUL:          0 USELESS:          0
cpu0_ITLB AVERAGE MISS LATENCY: -nan cycles
cpu0_L1D TOTAL        ACCESS:   12419410 HIT:   10757344 MISS:    1662066
cpu0_L1D LOAD         ACCESS:    4778393 HIT:    3584647 MISS:    1193746
cpu0_L1D RFO          ACCESS:          0 HIT:          0 MISS:          0
cpu0_L1D PREFETCH     ACCESS:    1462884 HIT:    1263015 MISS:     199869
cpu0_L1D WRITE        ACCESS:    6147161 HIT:    5890347 MISS:     256814
cpu0_L1D TRANSLATION  ACCESS:      30972 HIT:      19335 MISS:      11637
cpu0_L1D PREFETCH REQUESTED:   52174600 ISSUED:    1462884 USEFUL:      11188 USELESS:      98560
cpu0_L1D AVERAGE MISS LATENCY: 580.8 cycles
cpu0_L1I TOTAL        ACCESS:          0 HIT:          0 MISS:          0
cpu0_L1I LOAD         ACCESS:          0 HIT:          0 MISS:          0
cpu0_L1I RFO          ACCESS:          0 HIT:          0 MISS:          0
cpu0_L1I PREFETCH     ACCESS:          0 HIT:          0 MISS:          0
cpu0_L1I WRITE        ACCESS:          0 HIT:          0 MISS:          0
cpu0_L1I TRANSLATION  ACCESS:          0 HIT:          0 MISS:          0
cpu0_L1I PREFETCH REQUESTED:          0 ISSUED:          0 USEFUL:          0 USELESS:          0
cpu0_L1I AVERAGE MISS LATENCY: -nan cycles
cpu0_L2C TOTAL        ACCESS:    2213126 HIT:     312901 MISS:    1900225
cpu0_L2C LOAD         ACCESS:    1116262 HIT:      88187 MISS:    1028075
cpu0_L2C RFO          ACCESS:      58876 HIT:       4058 MISS:      54818
cpu0_L2C PREFETCH     ACCESS:     867269 HIT:      54049 MISS:     813220
cpu0_L2C WRITE        ACCESS:     159092 HIT:     158177 MISS:        915
cpu0_L2C TRANSLATION  ACCESS:      11627 HIT:       8430 MISS:       3197
cpu0_L2C PREFETCH REQUESTED:     757535 ISSUED:     757535 USEFUL:     107775 USELESS:      22850
cpu0_L2C AVERAGE MISS LATENCY: 532.2 cycles
cpu0_STLB TOTAL        ACCESS:      59560 HIT:      28616 MISS:      30944
cpu0_STLB LOAD         ACCESS:      59560 HIT:      28616 MISS:      30944
cpu0_STLB RFO          ACCESS:          0 HIT:          0 MISS:          0
cpu0_STLB PREFETCH     ACCESS:          0 HIT:          0 MISS:          0
cpu0_STLB WRITE        ACCESS:          0 HIT:          0 MISS:          0
cpu0_STLB TRANSLATION  ACCESS:          0 HIT:          0 MISS:          0
cpu0_STLB PREFETCH REQUESTED:          0 ISSUED:          0 USEFUL:          0 USELESS:          0
cpu0_STLB AVERAGE MISS LATENCY: 324.3 cycles

DRAM Statistics

Channel 0 RQ ROW_BUFFER_HIT:     878308
  ROW_BUFFER_MISS:     451066
 AVG DBUS CONGESTED CYCLE: 3.916
WQ ROW_BUFFER_HIT: Channel 0 
  ROW_BUFFER_MISS:      12016
  FULL:     115942
