WARNING: physical memory size is smaller than virtual memory size.

*** ChampSim Multicore Out-of-Order Simulator ***
Warmup Instructions: 25000000
Simulation Instructions: 25000000
Number of CPUs: 1
Page size: 4096

Off-chip DRAM Size: 4 GiB Channels: 1 Width: 64-bit Data Race: 800 MT/s
Heartbeat CPU 0 instructions: 10000003 cycles: 2500090 heartbeat IPC: 4 cumulative IPC: 4 (Simulation time: 00 hr 00 min 43 sec)
Heartbeat CPU 0 instructions: 20000003 cycles: 5000090 heartbeat IPC: 4 cumulative IPC: 4 (Simulation time: 00 hr 01 min 32 sec)
Warmup finished CPU 0 instructions: 25000003 cycles: 6250091 cumulative IPC: 4 (Simulation time: 00 hr 01 min 56 sec)
Warmup complete CPU 0 instructions: 25000003 cycles: 6250091 cumulative IPC: 4 (Simulation time: 00 hr 01 min 56 sec)
Heartbeat CPU 0 instructions: 30000002 cycles: 34465417 heartbeat IPC: 0.3394 cumulative IPC: 0.1772 (Simulation time: 00 hr 06 min 54 sec)
Heartbeat CPU 0 instructions: 40000000 cycles: 88144545 heartbeat IPC: 0.1863 cumulative IPC: 0.1832 (Simulation time: 00 hr 17 min 05 sec)
Heartbeat CPU 0 instructions: 50000000 cycles: 138455434 heartbeat IPC: 0.1988 cumulative IPC: 0.1891 (Simulation time: 00 hr 26 min 08 sec)
Simulation finished CPU 0 instructions: 25000001 cycles: 132205345 cumulative IPC: 0.1891 (Simulation time: 00 hr 26 min 08 sec)
Simulation complete CPU 0 instructions: 25000001 cycles: 132205345 cumulative IPC: 0.1891 (Simulation time: 00 hr 26 min 08 sec)

ChampSim completed all CPUs

=== Simulation ===
CPU 0 runs ./traces/605.mcf_s-1536B.champsimtrace.xz
Region of Interest Statistics

CPU 0 cumulative IPC: 0.1891 instructions: 25000001 cycles: 132205345
CPU 0 Branch Prediction Accuracy: 99.97% MPKI: 0.0528 Average ROB Occupancy at Mispredict: 283.3
Branch type MPKI
BRANCH_DIRECT_JUMP: 0
BRANCH_INDIRECT: 0
BRANCH_CONDITIONAL: 0.0528
BRANCH_DIRECT_CALL: 0
BRANCH_INDIRECT_CALL: 0
BRANCH_RETURN: 0

LLC TOTAL        ACCESS:    2867558 HIT:    1613670 MISS:    1253888
LLC LOAD         ACCESS:     932493 HIT:     724415 MISS:     208078
LLC RFO          ACCESS:      69359 HIT:      65529 MISS:       3830
LLC PREFETCH     ACCESS:     746352 HIT:     174010 MISS:     572342
LLC WRITE        ACCESS:     554559 HIT:     543584 MISS:      10975
LLC TRANSLATION  ACCESS:     564795 HIT:     106132 MISS:     458663
LLC PREFETCH REQUESTED:          0 ISSUED:          0 USEFUL:          0 USELESS:          0
LLC AVERAGE MISS LATENCY: 1055 cycles
cpu0_DTLB TOTAL        ACCESS:    4410593 HIT:    2933679 MISS:    1476914
cpu0_DTLB LOAD         ACCESS:    4410593 HIT:    2933679 MISS:    1476914
cpu0_DTLB RFO          ACCESS:          0 HIT:          0 MISS:          0
cpu0_DTLB PREFETCH     ACCESS:          0 HIT:          0 MISS:          0
cpu0_DTLB WRITE        ACCESS:          0 HIT:          0 MISS:          0
cpu0_DTLB TRANSLATION  ACCESS:          0 HIT:          0 MISS:          0
cpu0_DTLB PREFETCH REQUESTED:          0 ISSUED:          0 USEFUL:          0 USELESS:          0
cpu0_DTLB AVERAGE MISS LATENCY: 345.6 cycles
cpu0_ITLB TOTAL        ACCESS:          0 HIT:          0 MISS:          0
cpu0_ITLB LOAD         ACCESS:          0 HIT:          0 MISS:          0
cpu0_ITLB RFO          ACCESS:          0 HIT:          0 MISS:          0
cpu0_ITLB PREFETCH     ACCESS:          0 HIT:          0 MISS:          0
cpu0_ITLB WRITE        ACCESS:          0 HIT:          0 MISS:          0
cpu0_ITLB TRANSLATION  ACCESS:          0 HIT:          0 MISS:          0
cpu0_ITLB PREFETCH REQUESTED:          0 ISSUED:          0 USEFUL:          0 USELESS:          0
cpu0_ITLB AVERAGE MISS LATENCY: -nan cycles
cpu0_L1D TOTAL        ACCESS:   10224950 HIT:    5505569 MISS:    4719381
cpu0_L1D LOAD         ACCESS:    4230360 HIT:    2237435 MISS:    1992925
cpu0_L1D RFO          ACCESS:          0 HIT:          0 MISS:          0
cpu0_L1D PREFETCH     ACCESS:    4286198 HIT:    2229799 MISS:    2056399
cpu0_L1D WRITE        ACCESS:    1042242 HIT:     965807 MISS:      76435
cpu0_L1D TRANSLATION  ACCESS:     666150 HIT:      72528 MISS:     593622
cpu0_L1D PREFETCH REQUESTED:    5472685 ISSUED:    4286192 USEFUL:       3305 USELESS:     962258
cpu0_L1D AVERAGE MISS LATENCY: 294.7 cycles
cpu0_L1I TOTAL        ACCESS:          0 HIT:          0 MISS:          0
cpu0_L1I LOAD         ACCESS:          0 HIT:          0 MISS:          0
cpu0_L1I RFO          ACCESS:          0 HIT:          0 MISS:          0
cpu0_L1I PREFETCH     ACCESS:          0 HIT:          0 MISS:          0
cpu0_L1I WRITE        ACCESS:          0 HIT:          0 MISS:          0
cpu0_L1I TRANSLATION  ACCESS:          0 HIT:          0 MISS:          0
cpu0_L1I PREFETCH REQUESTED:          0 ISSUED:          0 USEFUL:          0 USELESS:          0
cpu0_L1I AVERAGE MISS LATENCY: -nan cycles
cpu0_L2C TOTAL        ACCESS:    3525897 HIT:    1206113 MISS:    2319784
cpu0_L2C LOAD         ACCESS:    1233839 HIT:     299506 MISS:     934333
cpu0_L2C RFO          ACCESS:      76128 HIT:       6769 MISS:      69359
cpu0_L2C PREFETCH     ACCESS:    1062858 HIT:     311563 MISS:     751295
cpu0_L2C WRITE        ACCESS:     561143 HIT:     561141 MISS:          2
cpu0_L2C TRANSLATION  ACCESS:     591929 HIT:      27134 MISS:     564795
cpu0_L2C PREFETCH REQUESTED:      97297 ISSUED:      97297 USEFUL:      21232 USELESS:      27194
cpu0_L2C AVERAGE MISS LATENCY: 590.2 cycles
cpu0_STLB TOTAL        ACCESS:     663835 HIT:     101803 MISS:     562032
cpu0_STLB LOAD         ACCESS:     663835 HIT:     101803 MISS:     562032
cpu0_STLB RFO          ACCESS:          0 HIT:          0 MISS:          0
cpu0_STLB PREFETCH     ACCESS:          0 HIT:          0 MISS:          0
cpu0_STLB WRITE        ACCESS:          0 HIT:          0 MISS:          0
cpu0_STLB TRANSLATION  ACCESS:          0 HIT:          0 MISS:          0
cpu0_STLB PREFETCH REQUESTED:          0 ISSUED:          0 USEFUL:          0 USELESS:          0
cpu0_STLB AVERAGE MISS LATENCY: 908.9 cycles

DRAM Statistics

Channel 0 RQ ROW_BUFFER_HIT:      72574
  ROW_BUFFER_MISS:    1169938
 AVG DBUS CONGESTED CYCLE: 3.975
WQ ROW_BUFFER_HIT: Channel 0 
  ROW_BUFFER_MISS:       1616
  FULL:     556553
