WARNING: physical memory size is smaller than virtual memory size.

*** ChampSim Multicore Out-of-Order Simulator ***
Warmup Instructions: 25000000
Simulation Instructions: 25000000
Number of CPUs: 1
Page size: 4096

Off-chip DRAM Size: 4 GiB Channels: 1 Width: 64-bit Data Race: 800 MT/s
Heartbeat CPU 0 instructions: 10000003 cycles: 2500090 heartbeat IPC: 4 cumulative IPC: 4 (Simulation time: 00 hr 00 min 35 sec)
Heartbeat CPU 0 instructions: 20000003 cycles: 5000090 heartbeat IPC: 4 cumulative IPC: 4 (Simulation time: 00 hr 01 min 12 sec)
Warmup finished CPU 0 instructions: 25000003 cycles: 6250091 cumulative IPC: 4 (Simulation time: 00 hr 01 min 31 sec)
Warmup complete CPU 0 instructions: 25000003 cycles: 6250091 cumulative IPC: 4 (Simulation time: 00 hr 01 min 31 sec)
Heartbeat CPU 0 instructions: 30000002 cycles: 34515937 heartbeat IPC: 0.3388 cumulative IPC: 0.1769 (Simulation time: 00 hr 05 min 37 sec)
Heartbeat CPU 0 instructions: 40000003 cycles: 93699081 heartbeat IPC: 0.169 cumulative IPC: 0.1715 (Simulation time: 00 hr 14 min 42 sec)
Heartbeat CPU 0 instructions: 50000000 cycles: 150785882 heartbeat IPC: 0.1752 cumulative IPC: 0.173 (Simulation time: 00 hr 22 min 54 sec)
Simulation finished CPU 0 instructions: 25000001 cycles: 144535793 cumulative IPC: 0.173 (Simulation time: 00 hr 22 min 54 sec)
Simulation complete CPU 0 instructions: 25000001 cycles: 144535793 cumulative IPC: 0.173 (Simulation time: 00 hr 22 min 54 sec)

ChampSim completed all CPUs

=== Simulation ===
CPU 0 runs ./traces/605.mcf_s-1536B.champsimtrace.xz
Region of Interest Statistics

CPU 0 cumulative IPC: 0.173 instructions: 25000001 cycles: 144535793
CPU 0 Branch Prediction Accuracy: 99.97% MPKI: 0.0528 Average ROB Occupancy at Mispredict: 270.3
Branch type MPKI
BRANCH_DIRECT_JUMP: 0
BRANCH_INDIRECT: 0
BRANCH_CONDITIONAL: 0.0528
BRANCH_DIRECT_CALL: 0
BRANCH_INDIRECT_CALL: 0
BRANCH_RETURN: 0

LLC TOTAL        ACCESS:    2866235 HIT:    1389158 MISS:    1477077
LLC LOAD         ACCESS:     930728 HIT:     545624 MISS:     385104
LLC RFO          ACCESS:      69359 HIT:      55107 MISS:      14252
LLC PREFETCH     ACCESS:     747014 HIT:     169440 MISS:     577574
LLC WRITE        ACCESS:     554547 HIT:     515589 MISS:      38958
LLC TRANSLATION  ACCESS:     564587 HIT:     103398 MISS:     461189
LLC PREFETCH REQUESTED:          0 ISSUED:          0 USEFUL:          0 USELESS:          0
LLC AVERAGE MISS LATENCY: 1039 cycles
cpu0_DTLB TOTAL        ACCESS:    4567190 HIT:    3005538 MISS:    1561652
cpu0_DTLB LOAD         ACCESS:    4567190 HIT:    3005538 MISS:    1561652
cpu0_DTLB RFO          ACCESS:          0 HIT:          0 MISS:          0
cpu0_DTLB PREFETCH     ACCESS:          0 HIT:          0 MISS:          0
cpu0_DTLB WRITE        ACCESS:          0 HIT:          0 MISS:          0
cpu0_DTLB TRANSLATION  ACCESS:          0 HIT:          0 MISS:          0
cpu0_DTLB PREFETCH REQUESTED:          0 ISSUED:          0 USEFUL:          0 USELESS:          0
cpu0_DTLB AVERAGE MISS LATENCY: 323.2 cycles
cpu0_ITLB TOTAL        ACCESS:          0 HIT:          0 MISS:          0
cpu0_ITLB LOAD         ACCESS:          0 HIT:          0 MISS:          0
cpu0_ITLB RFO          ACCESS:          0 HIT:          0 MISS:          0
cpu0_ITLB PREFETCH     ACCESS:          0 HIT:          0 MISS:          0
cpu0_ITLB WRITE        ACCESS:          0 HIT:          0 MISS:          0
cpu0_ITLB TRANSLATION  ACCESS:          0 HIT:          0 MISS:          0
cpu0_ITLB PREFETCH REQUESTED:          0 ISSUED:          0 USEFUL:          0 USELESS:          0
cpu0_ITLB AVERAGE MISS LATENCY: -nan cycles
cpu0_L1D TOTAL        ACCESS:   10613766 HIT:    5797752 MISS:    4816014
cpu0_L1D LOAD         ACCESS:    4398457 HIT:    2369018 MISS:    2029439
cpu0_L1D RFO          ACCESS:          0 HIT:          0 MISS:          0
cpu0_L1D PREFETCH     ACCESS:    4493865 HIT:    2374820 MISS:    2119045
cpu0_L1D WRITE        ACCESS:    1058211 HIT:     981858 MISS:      76353
cpu0_L1D TRANSLATION  ACCESS:     663233 HIT:      72056 MISS:     591177
cpu0_L1D PREFETCH REQUESTED:    6091813 ISSUED:    4493859 USEFUL:       3359 USELESS:     967580
cpu0_L1D AVERAGE MISS LATENCY: 332.5 cycles
cpu0_L1I TOTAL        ACCESS:          0 HIT:          0 MISS:          0
cpu0_L1I LOAD         ACCESS:          0 HIT:          0 MISS:          0
cpu0_L1I RFO          ACCESS:          0 HIT:          0 MISS:          0
cpu0_L1I PREFETCH     ACCESS:          0 HIT:          0 MISS:          0
cpu0_L1I WRITE        ACCESS:          0 HIT:          0 MISS:          0
cpu0_L1I TRANSLATION  ACCESS:          0 HIT:          0 MISS:          0
cpu0_L1I PREFETCH REQUESTED:          0 ISSUED:          0 USEFUL:          0 USELESS:          0
cpu0_L1I AVERAGE MISS LATENCY: -nan cycles
cpu0_L2C TOTAL        ACCESS:    3527820 HIT:    1210680 MISS:    2317140
cpu0_L2C LOAD         ACCESS:    1233884 HIT:     301655 MISS:     932229
cpu0_L2C RFO          ACCESS:      76180 HIT:       6821 MISS:      69359
cpu0_L2C PREFETCH     ACCESS:    1066956 HIT:     315993 MISS:     750963
cpu0_L2C WRITE        ACCESS:     561181 HIT:     561179 MISS:          2
cpu0_L2C TRANSLATION  ACCESS:     589619 HIT:      25032 MISS:     564587
cpu0_L2C PREFETCH REQUESTED:      96026 ISSUED:      96026 USEFUL:      21646 USELESS:      26035
cpu0_L2C AVERAGE MISS LATENCY: 682.1 cycles
cpu0_STLB TOTAL        ACCESS:     664174 HIT:     102146 MISS:     562028
cpu0_STLB LOAD         ACCESS:     664174 HIT:     102146 MISS:     562028
cpu0_STLB RFO          ACCESS:          0 HIT:          0 MISS:          0
cpu0_STLB PREFETCH     ACCESS:          0 HIT:          0 MISS:          0
cpu0_STLB WRITE        ACCESS:          0 HIT:          0 MISS:          0
cpu0_STLB TRANSLATION  ACCESS:          0 HIT:          0 MISS:          0
cpu0_STLB PREFETCH REQUESTED:          0 ISSUED:          0 USEFUL:          0 USELESS:          0
cpu0_STLB AVERAGE MISS LATENCY: 897.5 cycles

DRAM Statistics

Channel 0 RQ ROW_BUFFER_HIT:      74474
  ROW_BUFFER_MISS:    1363135
 AVG DBUS CONGESTED CYCLE: 3.978
WQ ROW_BUFFER_HIT: Channel 0 
  ROW_BUFFER_MISS:       2034
  FULL:     551167
