WARNING: physical memory size is smaller than virtual memory size.

*** ChampSim Multicore Out-of-Order Simulator ***
Warmup Instructions: 25000000
Simulation Instructions: 25000000
Number of CPUs: 1
Page size: 4096

Off-chip DRAM Size: 4 GiB Channels: 1 Width: 64-bit Data Race: 800 MT/s
Heartbeat CPU 0 instructions: 10000003 cycles: 2511456 heartbeat IPC: 3.982 cumulative IPC: 3.982 (Simulation time: 00 hr 00 min 44 sec)
Heartbeat CPU 0 instructions: 20000001 cycles: 5022820 heartbeat IPC: 3.982 cumulative IPC: 3.982 (Simulation time: 00 hr 01 min 29 sec)
Warmup finished CPU 0 instructions: 25000001 cycles: 6279051 cumulative IPC: 3.981 (Simulation time: 00 hr 01 min 52 sec)
Warmup complete CPU 0 instructions: 25000001 cycles: 6279051 cumulative IPC: 3.981 (Simulation time: 00 hr 01 min 52 sec)
Heartbeat CPU 0 instructions: 30000002 cycles: 33354184 heartbeat IPC: 0.353 cumulative IPC: 0.1847 (Simulation time: 00 hr 05 min 46 sec)
Heartbeat CPU 0 instructions: 40000000 cycles: 87269060 heartbeat IPC: 0.1855 cumulative IPC: 0.1852 (Simulation time: 00 hr 14 min 20 sec)
Heartbeat CPU 0 instructions: 50000001 cycles: 141608075 heartbeat IPC: 0.184 cumulative IPC: 0.1847 (Simulation time: 00 hr 23 min 25 sec)
Simulation finished CPU 0 instructions: 25000000 cycles: 135329025 cumulative IPC: 0.1847 (Simulation time: 00 hr 23 min 25 sec)
Simulation complete CPU 0 instructions: 25000000 cycles: 135329025 cumulative IPC: 0.1847 (Simulation time: 00 hr 23 min 25 sec)

ChampSim completed all CPUs

=== Simulation ===
CPU 0 runs ./traces/605.mcf_s-1554B.champsimtrace.xz
Region of Interest Statistics

CPU 0 cumulative IPC: 0.1847 instructions: 25000000 cycles: 135329025
CPU 0 Branch Prediction Accuracy: 97.34% MPKI: 4.839 Average ROB Occupancy at Mispredict: 43.9
Branch type MPKI
BRANCH_DIRECT_JUMP: 0
BRANCH_INDIRECT: 0
BRANCH_CONDITIONAL: 4.84
BRANCH_DIRECT_CALL: 0
BRANCH_INDIRECT_CALL: 0
BRANCH_RETURN: 0

LLC TOTAL        ACCESS:    6144300 HIT:    3070284 MISS:    3074016
LLC LOAD         ACCESS:    3174944 HIT:    1659739 MISS:    1515205
LLC RFO          ACCESS:      72870 HIT:        409 MISS:      72461
LLC PREFETCH     ACCESS:    2804343 HIT:    1324942 MISS:    1479401
LLC WRITE        ACCESS:      91568 HIT:      85043 MISS:       6525
LLC TRANSLATION  ACCESS:        575 HIT:        151 MISS:        424
LLC PREFETCH REQUESTED:          0 ISSUED:          0 USEFUL:          0 USELESS:          0
LLC AVERAGE MISS LATENCY: 636.1 cycles
cpu0_DTLB TOTAL        ACCESS:    6698501 HIT:    6547820 MISS:     150681
cpu0_DTLB LOAD         ACCESS:    6698501 HIT:    6547820 MISS:     150681
cpu0_DTLB RFO          ACCESS:          0 HIT:          0 MISS:          0
cpu0_DTLB PREFETCH     ACCESS:          0 HIT:          0 MISS:          0
cpu0_DTLB WRITE        ACCESS:          0 HIT:          0 MISS:          0
cpu0_DTLB TRANSLATION  ACCESS:          0 HIT:          0 MISS:          0
cpu0_DTLB PREFETCH REQUESTED:          0 ISSUED:          0 USEFUL:          0 USELESS:          0
cpu0_DTLB AVERAGE MISS LATENCY: 7.737 cycles
cpu0_ITLB TOTAL        ACCESS:          0 HIT:          0 MISS:          0
cpu0_ITLB LOAD         ACCESS:          0 HIT:          0 MISS:          0
cpu0_ITLB RFO          ACCESS:          0 HIT:          0 MISS:          0
cpu0_ITLB PREFETCH     ACCESS:          0 HIT:          0 MISS:          0
cpu0_ITLB WRITE        ACCESS:          0 HIT:          0 MISS:          0
cpu0_ITLB TRANSLATION  ACCESS:          0 HIT:          0 MISS:          0
cpu0_ITLB PREFETCH REQUESTED:          0 ISSUED:          0 USEFUL:          0 USELESS:          0
cpu0_ITLB AVERAGE MISS LATENCY: -nan cycles
cpu0_L1D TOTAL        ACCESS:   10324559 HIT:    5035804 MISS:    5288755
cpu0_L1D LOAD         ACCESS:    6311898 HIT:    2232512 MISS:    4079386
cpu0_L1D RFO          ACCESS:          0 HIT:          0 MISS:          0
cpu0_L1D PREFETCH     ACCESS:    2402038 HIT:    1507345 MISS:     894693
cpu0_L1D WRITE        ACCESS:    1608452 HIT:    1295869 MISS:     312583
cpu0_L1D TRANSLATION  ACCESS:       2171 HIT:         78 MISS:       2093
cpu0_L1D PREFETCH REQUESTED:   82452883 ISSUED:    2402030 USEFUL:      49996 USELESS:     446742
cpu0_L1D AVERAGE MISS LATENCY: 312.4 cycles
cpu0_L1I TOTAL        ACCESS:          0 HIT:          0 MISS:          0
cpu0_L1I LOAD         ACCESS:          0 HIT:          0 MISS:          0
cpu0_L1I RFO          ACCESS:          0 HIT:          0 MISS:          0
cpu0_L1I PREFETCH     ACCESS:          0 HIT:          0 MISS:          0
cpu0_L1I WRITE        ACCESS:          0 HIT:          0 MISS:          0
cpu0_L1I TRANSLATION  ACCESS:          0 HIT:          0 MISS:          0
cpu0_L1I PREFETCH REQUESTED:          0 ISSUED:          0 USEFUL:          0 USELESS:          0
cpu0_L1I AVERAGE MISS LATENCY: -nan cycles
cpu0_L2C TOTAL        ACCESS:    7258678 HIT:     839964 MISS:    6418714
cpu0_L2C LOAD         ACCESS:    3721444 HIT:     384618 MISS:    3336826
cpu0_L2C RFO          ACCESS:      75225 HIT:       2355 MISS:      72870
cpu0_L2C PREFETCH     ACCESS:    3365969 HIT:     357785 MISS:    3008184
cpu0_L2C WRITE        ACCESS:      93947 HIT:      93688 MISS:        259
cpu0_L2C TRANSLATION  ACCESS:       2093 HIT:       1518 MISS:        575
cpu0_L2C PREFETCH REQUESTED:    2869161 ISSUED:    2869161 USEFUL:     598334 USELESS:     134791
cpu0_L2C AVERAGE MISS LATENCY: 271.5 cycles
cpu0_STLB TOTAL        ACCESS:      98458 HIT:      96290 MISS:       2168
cpu0_STLB LOAD         ACCESS:      98458 HIT:      96290 MISS:       2168
cpu0_STLB RFO          ACCESS:          0 HIT:          0 MISS:          0
cpu0_STLB PREFETCH     ACCESS:          0 HIT:          0 MISS:          0
cpu0_STLB WRITE        ACCESS:          0 HIT:          0 MISS:          0
cpu0_STLB TRANSLATION  ACCESS:          0 HIT:          0 MISS:          0
cpu0_STLB PREFETCH REQUESTED:          0 ISSUED:          0 USEFUL:          0 USELESS:          0
cpu0_STLB AVERAGE MISS LATENCY: 303.3 cycles

DRAM Statistics

Channel 0 RQ ROW_BUFFER_HIT:    1935942
  ROW_BUFFER_MISS:     575028
 AVG DBUS CONGESTED CYCLE: 3.905
WQ ROW_BUFFER_HIT: Channel 0 
  ROW_BUFFER_MISS:      16543
  FULL:      74921
