WARNING: physical memory size is smaller than virtual memory size.

*** ChampSim Multicore Out-of-Order Simulator ***
Warmup Instructions: 25000000
Simulation Instructions: 25000000
Number of CPUs: 1
Page size: 4096

Off-chip DRAM Size: 4 GiB Channels: 1 Width: 64-bit Data Race: 800 MT/s
Heartbeat CPU 0 instructions: 10000000 cycles: 3499441 heartbeat IPC: 2.858 cumulative IPC: 2.858 (Simulation time: 00 hr 00 min 54 sec)
Heartbeat CPU 0 instructions: 20000000 cycles: 6997657 heartbeat IPC: 2.859 cumulative IPC: 2.858 (Simulation time: 00 hr 01 min 52 sec)
Warmup finished CPU 0 instructions: 25000001 cycles: 8748863 cumulative IPC: 2.858 (Simulation time: 00 hr 02 min 23 sec)
Warmup complete CPU 0 instructions: 25000001 cycles: 8748863 cumulative IPC: 2.858 (Simulation time: 00 hr 02 min 23 sec)
Heartbeat CPU 0 instructions: 30000002 cycles: 79415385 heartbeat IPC: 0.1381 cumulative IPC: 0.07075 (Simulation time: 00 hr 09 min 39 sec)
Heartbeat CPU 0 instructions: 40000000 cycles: 222182791 heartbeat IPC: 0.07004 cumulative IPC: 0.07028 (Simulation time: 00 hr 23 min 36 sec)
Heartbeat CPU 0 instructions: 50000000 cycles: 365376666 heartbeat IPC: 0.06984 cumulative IPC: 0.0701 (Simulation time: 00 hr 29 min 21 sec)
Simulation finished CPU 0 instructions: 25000003 cycles: 356627805 cumulative IPC: 0.0701 (Simulation time: 00 hr 29 min 21 sec)
Simulation complete CPU 0 instructions: 25000003 cycles: 356627805 cumulative IPC: 0.0701 (Simulation time: 00 hr 29 min 21 sec)

ChampSim completed all CPUs

=== Simulation ===
CPU 0 runs ./traces/605.mcf_s-1644B.champsimtrace.xz
Region of Interest Statistics

CPU 0 cumulative IPC: 0.0701 instructions: 25000003 cycles: 356627805
CPU 0 Branch Prediction Accuracy: 93.34% MPKI: 8.275 Average ROB Occupancy at Mispredict: 82.07
Branch type MPKI
BRANCH_DIRECT_JUMP: 0
BRANCH_INDIRECT: 0
BRANCH_CONDITIONAL: 8.27
BRANCH_DIRECT_CALL: 0
BRANCH_INDIRECT_CALL: 0
BRANCH_RETURN: 0

LLC TOTAL        ACCESS:    5482424 HIT:    2381754 MISS:    3100670
LLC LOAD         ACCESS:     756749 HIT:     424954 MISS:     331795
LLC RFO          ACCESS:    1093083 HIT:        829 MISS:    1092254
LLC PREFETCH     ACCESS:     806374 HIT:     297623 MISS:     508751
LLC WRITE        ACCESS:    2215559 HIT:    1625956 MISS:     589603
LLC TRANSLATION  ACCESS:     610659 HIT:      32392 MISS:     578267
LLC PREFETCH REQUESTED:          0 ISSUED:          0 USEFUL:          0 USELESS:          0
LLC AVERAGE MISS LATENCY: 838.1 cycles
cpu0_DTLB TOTAL        ACCESS:    8334216 HIT:    5176718 MISS:    3157498
cpu0_DTLB LOAD         ACCESS:    8334216 HIT:    5176718 MISS:    3157498
cpu0_DTLB RFO          ACCESS:          0 HIT:          0 MISS:          0
cpu0_DTLB PREFETCH     ACCESS:          0 HIT:          0 MISS:          0
cpu0_DTLB WRITE        ACCESS:          0 HIT:          0 MISS:          0
cpu0_DTLB TRANSLATION  ACCESS:          0 HIT:          0 MISS:          0
cpu0_DTLB PREFETCH REQUESTED:          0 ISSUED:          0 USEFUL:          0 USELESS:          0
cpu0_DTLB AVERAGE MISS LATENCY: 205.7 cycles
cpu0_ITLB TOTAL        ACCESS:          0 HIT:          0 MISS:          0
cpu0_ITLB LOAD         ACCESS:          0 HIT:          0 MISS:          0
cpu0_ITLB RFO          ACCESS:          0 HIT:          0 MISS:          0
cpu0_ITLB PREFETCH     ACCESS:          0 HIT:          0 MISS:          0
cpu0_ITLB WRITE        ACCESS:          0 HIT:          0 MISS:          0
cpu0_ITLB TRANSLATION  ACCESS:          0 HIT:          0 MISS:          0
cpu0_ITLB PREFETCH REQUESTED:          0 ISSUED:          0 USEFUL:          0 USELESS:          0
cpu0_ITLB AVERAGE MISS LATENCY: -nan cycles
cpu0_L1D TOTAL        ACCESS:   15091505 HIT:    6400798 MISS:    8690707
cpu0_L1D LOAD         ACCESS:    3043717 HIT:    1648563 MISS:    1395154
cpu0_L1D RFO          ACCESS:          0 HIT:          0 MISS:          0
cpu0_L1D PREFETCH     ACCESS:    2669179 HIT:    1079783 MISS:    1589396
cpu0_L1D WRITE        ACCESS:    8511806 HIT:    3591710 MISS:    4920096
cpu0_L1D TRANSLATION  ACCESS:     866803 HIT:      80742 MISS:     786061
cpu0_L1D PREFETCH REQUESTED:    3340180 ISSUED:    2669171 USEFUL:     300938 USELESS:     477702
cpu0_L1D AVERAGE MISS LATENCY: 280.2 cycles
cpu0_L1I TOTAL        ACCESS:          0 HIT:          0 MISS:          0
cpu0_L1I LOAD         ACCESS:          0 HIT:          0 MISS:          0
cpu0_L1I RFO          ACCESS:          0 HIT:          0 MISS:          0
cpu0_L1I PREFETCH     ACCESS:          0 HIT:          0 MISS:          0
cpu0_L1I WRITE        ACCESS:          0 HIT:          0 MISS:          0
cpu0_L1I TRANSLATION  ACCESS:          0 HIT:          0 MISS:          0
cpu0_L1I PREFETCH REQUESTED:          0 ISSUED:          0 USEFUL:          0 USELESS:          0
cpu0_L1I AVERAGE MISS LATENCY: -nan cycles
cpu0_L2C TOTAL        ACCESS:    6016055 HIT:    2636506 MISS:    3379549
cpu0_L2C LOAD         ACCESS:     868449 HIT:      96820 MISS:     771629
cpu0_L2C RFO          ACCESS:    1094574 HIT:       1491 MISS:    1093083
cpu0_L2C PREFETCH     ACCESS:    1006084 HIT:     103739 MISS:     902345
cpu0_L2C WRITE        ACCESS:    2263868 HIT:    2262036 MISS:       1832
cpu0_L2C TRANSLATION  ACCESS:     783080 HIT:     172420 MISS:     610660
cpu0_L2C PREFETCH REQUESTED:     227372 ISSUED:     227372 USEFUL:     134576 USELESS:       9824
cpu0_L2C AVERAGE MISS LATENCY: 784.8 cycles
cpu0_STLB TOTAL        ACCESS:     727515 HIT:     130467 MISS:     597048
cpu0_STLB LOAD         ACCESS:     727515 HIT:     130467 MISS:     597048
cpu0_STLB RFO          ACCESS:          0 HIT:          0 MISS:          0
cpu0_STLB PREFETCH     ACCESS:          0 HIT:          0 MISS:          0
cpu0_STLB WRITE        ACCESS:          0 HIT:          0 MISS:          0
cpu0_STLB TRANSLATION  ACCESS:          0 HIT:          0 MISS:          0
cpu0_STLB PREFETCH REQUESTED:          0 ISSUED:          0 USEFUL:          0 USELESS:          0
cpu0_STLB AVERAGE MISS LATENCY: 1145 cycles

DRAM Statistics

Channel 0 RQ ROW_BUFFER_HIT:     113930
  ROW_BUFFER_MISS:    2395720
 AVG DBUS CONGESTED CYCLE: 3.987
WQ ROW_BUFFER_HIT: Channel 0 
  ROW_BUFFER_MISS:       1531
  FULL:    1777897
