WARNING: physical memory size is smaller than virtual memory size.

*** ChampSim Multicore Out-of-Order Simulator ***
Warmup Instructions: 25000000
Simulation Instructions: 25000000
Number of CPUs: 1
Page size: 4096

Off-chip DRAM Size: 4 GiB Channels: 1 Width: 64-bit Data Race: 800 MT/s
Heartbeat CPU 0 instructions: 10000003 cycles: 2591252 heartbeat IPC: 3.859 cumulative IPC: 3.859 (Simulation time: 00 hr 00 min 31 sec)
Heartbeat CPU 0 instructions: 20000003 cycles: 5188433 heartbeat IPC: 3.85 cumulative IPC: 3.855 (Simulation time: 00 hr 01 min 05 sec)
Warmup finished CPU 0 instructions: 25000000 cycles: 6487084 cumulative IPC: 3.854 (Simulation time: 00 hr 01 min 23 sec)
Warmup complete CPU 0 instructions: 25000000 cycles: 6487084 cumulative IPC: 3.854 (Simulation time: 00 hr 01 min 23 sec)
Heartbeat CPU 0 instructions: 30000000 cycles: 19260503 heartbeat IPC: 0.7106 cumulative IPC: 0.3914 (Simulation time: 00 hr 02 min 41 sec)
Heartbeat CPU 0 instructions: 40000001 cycles: 43338699 heartbeat IPC: 0.4153 cumulative IPC: 0.407 (Simulation time: 00 hr 05 min 17 sec)
Heartbeat CPU 0 instructions: 50000001 cycles: 66402923 heartbeat IPC: 0.4336 cumulative IPC: 0.4173 (Simulation time: 00 hr 07 min 52 sec)
Simulation finished CPU 0 instructions: 25000001 cycles: 59915840 cumulative IPC: 0.4173 (Simulation time: 00 hr 07 min 52 sec)
Simulation complete CPU 0 instructions: 25000001 cycles: 59915840 cumulative IPC: 0.4173 (Simulation time: 00 hr 07 min 52 sec)

ChampSim completed all CPUs

=== Simulation ===
CPU 0 runs ./traces/605.mcf_s-665B.champsimtrace.xz
Region of Interest Statistics

CPU 0 cumulative IPC: 0.4173 instructions: 25000001 cycles: 59915840
CPU 0 Branch Prediction Accuracy: 85.71% MPKI: 35.61 Average ROB Occupancy at Mispredict: 12.04
Branch type MPKI
BRANCH_DIRECT_JUMP: 0.211
BRANCH_INDIRECT: 0
BRANCH_CONDITIONAL: 35.4
BRANCH_DIRECT_CALL: 0
BRANCH_INDIRECT_CALL: 0.00512
BRANCH_RETURN: 0

LLC TOTAL        ACCESS:    1304658 HIT:     852472 MISS:     452186
LLC LOAD         ACCESS:     501748 HIT:     345136 MISS:     156612
LLC RFO          ACCESS:      80171 HIT:      78392 MISS:       1779
LLC PREFETCH     ACCESS:     614005 HIT:     322282 MISS:     291723
LLC WRITE        ACCESS:     105523 HIT:     104759 MISS:        764
LLC TRANSLATION  ACCESS:       3211 HIT:       1903 MISS:       1308
LLC PREFETCH REQUESTED:          0 ISSUED:          0 USEFUL:          0 USELESS:          0
LLC AVERAGE MISS LATENCY: 296.1 cycles
cpu0_DTLB TOTAL        ACCESS:    7780611 HIT:    7245911 MISS:     534700
cpu0_DTLB LOAD         ACCESS:    7780611 HIT:    7245911 MISS:     534700
cpu0_DTLB RFO          ACCESS:          0 HIT:          0 MISS:          0
cpu0_DTLB PREFETCH     ACCESS:          0 HIT:          0 MISS:          0
cpu0_DTLB WRITE        ACCESS:          0 HIT:          0 MISS:          0
cpu0_DTLB TRANSLATION  ACCESS:          0 HIT:          0 MISS:          0
cpu0_DTLB PREFETCH REQUESTED:          0 ISSUED:          0 USEFUL:          0 USELESS:          0
cpu0_DTLB AVERAGE MISS LATENCY: 8.645 cycles
cpu0_ITLB TOTAL        ACCESS:      10093 HIT:      10093 MISS:          0
cpu0_ITLB LOAD         ACCESS:      10093 HIT:      10093 MISS:          0
cpu0_ITLB RFO          ACCESS:          0 HIT:          0 MISS:          0
cpu0_ITLB PREFETCH     ACCESS:          0 HIT:          0 MISS:          0
cpu0_ITLB WRITE        ACCESS:          0 HIT:          0 MISS:          0
cpu0_ITLB TRANSLATION  ACCESS:          0 HIT:          0 MISS:          0
cpu0_ITLB PREFETCH REQUESTED:          0 ISSUED:          0 USEFUL:          0 USELESS:          0
cpu0_ITLB AVERAGE MISS LATENCY: -nan cycles
cpu0_L1D TOTAL        ACCESS:   16101078 HIT:   13484944 MISS:    2616134
cpu0_L1D LOAD         ACCESS:    7059692 HIT:    5956240 MISS:    1103452
cpu0_L1D RFO          ACCESS:          0 HIT:          0 MISS:          0
cpu0_L1D PREFETCH     ACCESS:    6161744 HIT:    4953351 MISS:    1208393
cpu0_L1D WRITE        ACCESS:    2872997 HIT:    2572952 MISS:     300045
cpu0_L1D TRANSLATION  ACCESS:       6645 HIT:       2401 MISS:       4244
cpu0_L1D PREFETCH REQUESTED:    7180892 ISSUED:    6161736 USEFUL:     205879 USELESS:     584519
cpu0_L1D AVERAGE MISS LATENCY: 58.56 cycles
cpu0_L1I TOTAL        ACCESS:      11241 HIT:      11241 MISS:          0
cpu0_L1I LOAD         ACCESS:      11241 HIT:      11241 MISS:          0
cpu0_L1I RFO          ACCESS:          0 HIT:          0 MISS:          0
cpu0_L1I PREFETCH     ACCESS:          0 HIT:          0 MISS:          0
cpu0_L1I WRITE        ACCESS:          0 HIT:          0 MISS:          0
cpu0_L1I TRANSLATION  ACCESS:          0 HIT:          0 MISS:          0
cpu0_L1I PREFETCH REQUESTED:          0 ISSUED:          0 USEFUL:          0 USELESS:          0
cpu0_L1I AVERAGE MISS LATENCY: -nan cycles
cpu0_L2C TOTAL        ACCESS:    1950071 HIT:     724574 MISS:    1225497
cpu0_L2C LOAD         ACCESS:     811028 HIT:     304662 MISS:     506366
cpu0_L2C RFO          ACCESS:     104302 HIT:      24131 MISS:      80171
cpu0_L2C PREFETCH     ACCESS:     879042 HIT:     243466 MISS:     635576
cpu0_L2C WRITE        ACCESS:     151456 HIT:     151283 MISS:        173
cpu0_L2C TRANSLATION  ACCESS:       4243 HIT:       1032 MISS:       3211
cpu0_L2C PREFETCH REQUESTED:      88600 ISSUED:      88600 USEFUL:      31129 USELESS:       7324
cpu0_L2C AVERAGE MISS LATENCY: 127.8 cycles
cpu0_STLB TOTAL        ACCESS:     444579 HIT:     437970 MISS:       6609
cpu0_STLB LOAD         ACCESS:     444579 HIT:     437970 MISS:       6609
cpu0_STLB RFO          ACCESS:          0 HIT:          0 MISS:          0
cpu0_STLB PREFETCH     ACCESS:          0 HIT:          0 MISS:          0
cpu0_STLB WRITE        ACCESS:          0 HIT:          0 MISS:          0
cpu0_STLB TRANSLATION  ACCESS:          0 HIT:          0 MISS:          0
cpu0_STLB PREFETCH REQUESTED:          0 ISSUED:          0 USEFUL:          0 USELESS:          0
cpu0_STLB AVERAGE MISS LATENCY: 192.9 cycles

DRAM Statistics

Channel 0 RQ ROW_BUFFER_HIT:      85615
  ROW_BUFFER_MISS:     364186
 AVG DBUS CONGESTED CYCLE: 3.851
WQ ROW_BUFFER_HIT: Channel 0 
  ROW_BUFFER_MISS:       1530
  FULL:       3143
