WARNING: physical memory size is smaller than virtual memory size.

*** ChampSim Multicore Out-of-Order Simulator ***
Warmup Instructions: 25000000
Simulation Instructions: 25000000
Number of CPUs: 1
Page size: 4096

Off-chip DRAM Size: 4 GiB Channels: 1 Width: 64-bit Data Race: 800 MT/s
Heartbeat CPU 0 instructions: 10000002 cycles: 2511479 heartbeat IPC: 3.982 cumulative IPC: 3.982 (Simulation time: 00 hr 00 min 36 sec)
Heartbeat CPU 0 instructions: 20000002 cycles: 5022538 heartbeat IPC: 3.982 cumulative IPC: 3.982 (Simulation time: 00 hr 01 min 17 sec)
Warmup finished CPU 0 instructions: 25000003 cycles: 6278749 cumulative IPC: 3.982 (Simulation time: 00 hr 01 min 38 sec)
Warmup complete CPU 0 instructions: 25000003 cycles: 6278749 cumulative IPC: 3.982 (Simulation time: 00 hr 01 min 38 sec)
Heartbeat CPU 0 instructions: 30000001 cycles: 29129317 heartbeat IPC: 0.4148 cumulative IPC: 0.2188 (Simulation time: 00 hr 04 min 34 sec)
Heartbeat CPU 0 instructions: 40000003 cycles: 74231863 heartbeat IPC: 0.2217 cumulative IPC: 0.2207 (Simulation time: 00 hr 10 min 25 sec)
Heartbeat CPU 0 instructions: 50000003 cycles: 119925820 heartbeat IPC: 0.2188 cumulative IPC: 0.22 (Simulation time: 00 hr 16 min 26 sec)
Simulation finished CPU 0 instructions: 25000000 cycles: 113647072 cumulative IPC: 0.22 (Simulation time: 00 hr 16 min 26 sec)
Simulation complete CPU 0 instructions: 25000000 cycles: 113647072 cumulative IPC: 0.22 (Simulation time: 00 hr 16 min 26 sec)

ChampSim completed all CPUs

=== Simulation ===
CPU 0 runs ./traces/605.mcf_s-1554B.champsimtrace.xz
Region of Interest Statistics

CPU 0 cumulative IPC: 0.22 instructions: 25000000 cycles: 113647072
CPU 0 Branch Prediction Accuracy: 97.34% MPKI: 4.839 Average ROB Occupancy at Mispredict: 44.4
Branch type MPKI
BRANCH_DIRECT_JUMP: 0
BRANCH_INDIRECT: 0
BRANCH_CONDITIONAL: 4.84
BRANCH_DIRECT_CALL: 0
BRANCH_INDIRECT_CALL: 0
BRANCH_RETURN: 0

LLC TOTAL        ACCESS:    6034617 HIT:    3554897 MISS:    2479720
LLC LOAD         ACCESS:    3155870 HIT:    1953784 MISS:    1202086
LLC RFO          ACCESS:      72869 HIT:        353 MISS:      72516
LLC PREFETCH     ACCESS:    2713751 HIT:    1537576 MISS:    1176175
LLC WRITE        ACCESS:      91551 HIT:      63068 MISS:      28483
LLC TRANSLATION  ACCESS:        576 HIT:        116 MISS:        460
LLC PREFETCH REQUESTED:          0 ISSUED:          0 USEFUL:          0 USELESS:          0
LLC AVERAGE MISS LATENCY: 611.6 cycles
cpu0_DTLB TOTAL        ACCESS:    6730197 HIT:    6580555 MISS:     149642
cpu0_DTLB LOAD         ACCESS:    6730197 HIT:    6580555 MISS:     149642
cpu0_DTLB RFO          ACCESS:          0 HIT:          0 MISS:          0
cpu0_DTLB PREFETCH     ACCESS:          0 HIT:          0 MISS:          0
cpu0_DTLB WRITE        ACCESS:          0 HIT:          0 MISS:          0
cpu0_DTLB TRANSLATION  ACCESS:          0 HIT:          0 MISS:          0
cpu0_DTLB PREFETCH REQUESTED:          0 ISSUED:          0 USEFUL:          0 USELESS:          0
cpu0_DTLB AVERAGE MISS LATENCY: 7.897 cycles
cpu0_ITLB TOTAL        ACCESS:          0 HIT:          0 MISS:          0
cpu0_ITLB LOAD         ACCESS:          0 HIT:          0 MISS:          0
cpu0_ITLB RFO          ACCESS:          0 HIT:          0 MISS:          0
cpu0_ITLB PREFETCH     ACCESS:          0 HIT:          0 MISS:          0
cpu0_ITLB WRITE        ACCESS:          0 HIT:          0 MISS:          0
cpu0_ITLB TRANSLATION  ACCESS:          0 HIT:          0 MISS:          0
cpu0_ITLB PREFETCH REQUESTED:          0 ISSUED:          0 USEFUL:          0 USELESS:          0
cpu0_ITLB AVERAGE MISS LATENCY: -nan cycles
cpu0_L1D TOTAL        ACCESS:    9977967 HIT:    4818426 MISS:    5159541
cpu0_L1D LOAD         ACCESS:    6292534 HIT:    2219051 MISS:    4073483
cpu0_L1D RFO          ACCESS:          0 HIT:          0 MISS:          0
cpu0_L1D PREFETCH     ACCESS:    2136746 HIT:    1366474 MISS:     770272
cpu0_L1D WRITE        ACCESS:    1546516 HIT:    1232831 MISS:     313685
cpu0_L1D TRANSLATION  ACCESS:       2171 HIT:         70 MISS:       2101
cpu0_L1D PREFETCH REQUESTED:   67138089 ISSUED:    2136743 USEFUL:      42525 USELESS:     385052
cpu0_L1D AVERAGE MISS LATENCY: 258.1 cycles
cpu0_L1I TOTAL        ACCESS:          0 HIT:          0 MISS:          0
cpu0_L1I LOAD         ACCESS:          0 HIT:          0 MISS:          0
cpu0_L1I RFO          ACCESS:          0 HIT:          0 MISS:          0
cpu0_L1I PREFETCH     ACCESS:          0 HIT:          0 MISS:          0
cpu0_L1I WRITE        ACCESS:          0 HIT:          0 MISS:          0
cpu0_L1I TRANSLATION  ACCESS:          0 HIT:          0 MISS:          0
cpu0_L1I PREFETCH REQUESTED:          0 ISSUED:          0 USEFUL:          0 USELESS:          0
cpu0_L1I AVERAGE MISS LATENCY: -nan cycles
cpu0_L2C TOTAL        ACCESS:    7204050 HIT:     869983 MISS:    6334067
cpu0_L2C LOAD         ACCESS:    3728898 HIT:     397362 MISS:    3331536
cpu0_L2C RFO          ACCESS:      75192 HIT:       2323 MISS:      72869
cpu0_L2C PREFETCH     ACCESS:    3303949 HIT:     375121 MISS:    2928828
cpu0_L2C WRITE        ACCESS:      93910 HIT:      93652 MISS:        258
cpu0_L2C TRANSLATION  ACCESS:       2101 HIT:       1525 MISS:        576
cpu0_L2C PREFETCH REQUESTED:    2876301 ISSUED:    2876301 USEFUL:     625898 USELESS:     123040
cpu0_L2C AVERAGE MISS LATENCY: 219.4 cycles
cpu0_STLB TOTAL        ACCESS:      98464 HIT:      96296 MISS:       2168
cpu0_STLB LOAD         ACCESS:      98464 HIT:      96296 MISS:       2168
cpu0_STLB RFO          ACCESS:          0 HIT:          0 MISS:          0
cpu0_STLB PREFETCH     ACCESS:          0 HIT:          0 MISS:          0
cpu0_STLB WRITE        ACCESS:          0 HIT:          0 MISS:          0
cpu0_STLB TRANSLATION  ACCESS:          0 HIT:          0 MISS:          0
cpu0_STLB PREFETCH REQUESTED:          0 ISSUED:          0 USEFUL:          0 USELESS:          0
cpu0_STLB AVERAGE MISS LATENCY: 305.9 cycles

DRAM Statistics

Channel 0 RQ ROW_BUFFER_HIT:    1494868
  ROW_BUFFER_MISS:     515947
 AVG DBUS CONGESTED CYCLE: 3.894
WQ ROW_BUFFER_HIT: Channel 0 
  ROW_BUFFER_MISS:      14753
  FULL:      75259
