WARNING: physical memory size is smaller than virtual memory size.

*** ChampSim Multicore Out-of-Order Simulator ***
Warmup Instructions: 25000000
Simulation Instructions: 25000000
Number of CPUs: 1
Page size: 4096

Off-chip DRAM Size: 4 GiB Channels: 1 Width: 64-bit Data Race: 800 MT/s
Heartbeat CPU 0 instructions: 10000000 cycles: 2500791 heartbeat IPC: 3.999 cumulative IPC: 3.999 (Simulation time: 00 hr 00 min 32 sec)
Heartbeat CPU 0 instructions: 20000000 cycles: 5001197 heartbeat IPC: 3.999 cumulative IPC: 3.999 (Simulation time: 00 hr 01 min 08 sec)
Warmup finished CPU 0 instructions: 25000000 cycles: 6254233 cumulative IPC: 3.997 (Simulation time: 00 hr 01 min 26 sec)
Warmup complete CPU 0 instructions: 25000000 cycles: 6254233 cumulative IPC: 3.997 (Simulation time: 00 hr 01 min 26 sec)
Heartbeat CPU 0 instructions: 30000000 cycles: 25344028 heartbeat IPC: 0.4916 cumulative IPC: 0.2619 (Simulation time: 00 hr 03 min 22 sec)
Heartbeat CPU 0 instructions: 40000001 cycles: 50707653 heartbeat IPC: 0.3943 cumulative IPC: 0.3374 (Simulation time: 00 hr 06 min 13 sec)
Heartbeat CPU 0 instructions: 50000000 cycles: 157181308 heartbeat IPC: 0.09392 cumulative IPC: 0.1656 (Simulation time: 00 hr 16 min 38 sec)
Simulation finished CPU 0 instructions: 25000000 cycles: 150927076 cumulative IPC: 0.1656 (Simulation time: 00 hr 16 min 38 sec)
Simulation complete CPU 0 instructions: 25000000 cycles: 150927076 cumulative IPC: 0.1656 (Simulation time: 00 hr 16 min 38 sec)

ChampSim completed all CPUs

=== Simulation ===
CPU 0 runs ./traces/605.mcf_s-994B.champsimtrace.xz
Region of Interest Statistics

CPU 0 cumulative IPC: 0.1656 instructions: 25000000 cycles: 150927076
CPU 0 Branch Prediction Accuracy: 91.07% MPKI: 22.99 Average ROB Occupancy at Mispredict: 33.78
Branch type MPKI
BRANCH_DIRECT_JUMP: 0.125
BRANCH_INDIRECT: 0
BRANCH_CONDITIONAL: 22.9
BRANCH_DIRECT_CALL: 0
BRANCH_INDIRECT_CALL: 0.00236
BRANCH_RETURN: 4e-05

LLC TOTAL        ACCESS:    1514414 HIT:     314612 MISS:    1199802
LLC LOAD         ACCESS:     724249 HIT:     156084 MISS:     568165
LLC RFO          ACCESS:       1872 HIT:       1548 MISS:        324
LLC PREFETCH     ACCESS:     496804 HIT:      87544 MISS:     409260
LLC WRITE        ACCESS:      59055 HIT:      48071 MISS:      10984
LLC TRANSLATION  ACCESS:     232434 HIT:      21365 MISS:     211069
LLC PREFETCH REQUESTED:          0 ISSUED:          0 USEFUL:          0 USELESS:          0
LLC AVERAGE MISS LATENCY: 299.7 cycles
cpu0_DTLB TOTAL        ACCESS:    7599186 HIT:    7136483 MISS:     462703
cpu0_DTLB LOAD         ACCESS:    7599186 HIT:    7136483 MISS:     462703
cpu0_DTLB RFO          ACCESS:          0 HIT:          0 MISS:          0
cpu0_DTLB PREFETCH     ACCESS:          0 HIT:          0 MISS:          0
cpu0_DTLB WRITE        ACCESS:          0 HIT:          0 MISS:          0
cpu0_DTLB TRANSLATION  ACCESS:          0 HIT:          0 MISS:          0
cpu0_DTLB PREFETCH REQUESTED:          0 ISSUED:          0 USEFUL:          0 USELESS:          0
cpu0_DTLB AVERAGE MISS LATENCY: 238.1 cycles
cpu0_ITLB TOTAL        ACCESS:       2013 HIT:       2013 MISS:          0
cpu0_ITLB LOAD         ACCESS:       2013 HIT:       2013 MISS:          0
cpu0_ITLB RFO          ACCESS:          0 HIT:          0 MISS:          0
cpu0_ITLB PREFETCH     ACCESS:          0 HIT:          0 MISS:          0
cpu0_ITLB WRITE        ACCESS:          0 HIT:          0 MISS:          0
cpu0_ITLB TRANSLATION  ACCESS:          0 HIT:          0 MISS:          0
cpu0_ITLB PREFETCH REQUESTED:          0 ISSUED:          0 USEFUL:          0 USELESS:          0
cpu0_ITLB AVERAGE MISS LATENCY: -nan cycles
cpu0_L1D TOTAL        ACCESS:   15706529 HIT:   13486751 MISS:    2219778
cpu0_L1D LOAD         ACCESS:    7123323 HIT:    6109378 MISS:    1013945
cpu0_L1D RFO          ACCESS:          0 HIT:          0 MISS:          0
cpu0_L1D PREFETCH     ACCESS:    5662411 HIT:    4813030 MISS:     849381
cpu0_L1D WRITE        ACCESS:    2522901 HIT:    2482558 MISS:      40343
cpu0_L1D TRANSLATION  ACCESS:     397894 HIT:      81785 MISS:     316109
cpu0_L1D PREFETCH REQUESTED:    7417173 ISSUED:    5662409 USEFUL:      48448 USELESS:     516786
cpu0_L1D AVERAGE MISS LATENCY: 181.6 cycles
cpu0_L1I TOTAL        ACCESS:       2013 HIT:       2013 MISS:          0
cpu0_L1I LOAD         ACCESS:       2013 HIT:       2013 MISS:          0
cpu0_L1I RFO          ACCESS:          0 HIT:          0 MISS:          0
cpu0_L1I PREFETCH     ACCESS:          0 HIT:          0 MISS:          0
cpu0_L1I WRITE        ACCESS:          0 HIT:          0 MISS:          0
cpu0_L1I TRANSLATION  ACCESS:          0 HIT:          0 MISS:          0
cpu0_L1I PREFETCH REQUESTED:          0 ISSUED:          0 USEFUL:          0 USELESS:          0
cpu0_L1I AVERAGE MISS LATENCY: -nan cycles
cpu0_L2C TOTAL        ACCESS:    2028477 HIT:     572704 MISS:    1455773
cpu0_L2C LOAD         ACCESS:     975969 HIT:     251708 MISS:     724261
cpu0_L2C RFO          ACCESS:      10708 HIT:       8836 MISS:       1872
cpu0_L2C PREFETCH     ACCESS:     644637 HIT:     147635 MISS:     497002
cpu0_L2C WRITE        ACCESS:      81381 HIT:      81176 MISS:        205
cpu0_L2C TRANSLATION  ACCESS:     315782 HIT:      83349 MISS:     232433
cpu0_L2C PREFETCH REQUESTED:      79314 ISSUED:      79314 USEFUL:      24232 USELESS:        297
cpu0_L2C AVERAGE MISS LATENCY: 267.7 cycles
cpu0_STLB TOTAL        ACCESS:     396887 HIT:     160109 MISS:     236778
cpu0_STLB LOAD         ACCESS:     396887 HIT:     160109 MISS:     236778
cpu0_STLB RFO          ACCESS:          0 HIT:          0 MISS:          0
cpu0_STLB PREFETCH     ACCESS:          0 HIT:          0 MISS:          0
cpu0_STLB WRITE        ACCESS:          0 HIT:          0 MISS:          0
cpu0_STLB TRANSLATION  ACCESS:          0 HIT:          0 MISS:          0
cpu0_STLB PREFETCH REQUESTED:          0 ISSUED:          0 USEFUL:          0 USELESS:          0
cpu0_STLB AVERAGE MISS LATENCY: 453 cycles

DRAM Statistics

Channel 0 RQ ROW_BUFFER_HIT:     178394
  ROW_BUFFER_MISS:    1010117
 AVG DBUS CONGESTED CYCLE: 3.904
WQ ROW_BUFFER_HIT: Channel 0 
  ROW_BUFFER_MISS:       9526
  FULL:      34561
