WARNING: physical memory size is smaller than virtual memory size.

*** ChampSim Multicore Out-of-Order Simulator ***
Warmup Instructions: 25000000
Simulation Instructions: 25000000
Number of CPUs: 1
Page size: 4096

Off-chip DRAM Size: 4 GiB Channels: 1 Width: 64-bit Data Race: 800 MT/s
Heartbeat CPU 0 instructions: 10000003 cycles: 2591257 heartbeat IPC: 3.859 cumulative IPC: 3.859 (Simulation time: 00 hr 00 min 38 sec)
Heartbeat CPU 0 instructions: 20000003 cycles: 5188443 heartbeat IPC: 3.85 cumulative IPC: 3.855 (Simulation time: 00 hr 01 min 16 sec)
Warmup finished CPU 0 instructions: 25000000 cycles: 6487118 cumulative IPC: 3.854 (Simulation time: 00 hr 01 min 36 sec)
Warmup complete CPU 0 instructions: 25000000 cycles: 6487118 cumulative IPC: 3.854 (Simulation time: 00 hr 01 min 36 sec)
Heartbeat CPU 0 instructions: 30000000 cycles: 18257488 heartbeat IPC: 0.7652 cumulative IPC: 0.4248 (Simulation time: 00 hr 02 min 58 sec)
Heartbeat CPU 0 instructions: 40000001 cycles: 41516610 heartbeat IPC: 0.4299 cumulative IPC: 0.4282 (Simulation time: 00 hr 05 min 51 sec)
Heartbeat CPU 0 instructions: 50000001 cycles: 63915668 heartbeat IPC: 0.4464 cumulative IPC: 0.4353 (Simulation time: 00 hr 08 min 52 sec)
Simulation finished CPU 0 instructions: 25000001 cycles: 57428551 cumulative IPC: 0.4353 (Simulation time: 00 hr 08 min 52 sec)
Simulation complete CPU 0 instructions: 25000001 cycles: 57428551 cumulative IPC: 0.4353 (Simulation time: 00 hr 08 min 52 sec)

ChampSim completed all CPUs

=== Simulation ===
CPU 0 runs ./traces/605.mcf_s-665B.champsimtrace.xz
Region of Interest Statistics

CPU 0 cumulative IPC: 0.4353 instructions: 25000001 cycles: 57428551
CPU 0 Branch Prediction Accuracy: 85.71% MPKI: 35.61 Average ROB Occupancy at Mispredict: 11.81
Branch type MPKI
BRANCH_DIRECT_JUMP: 0.211
BRANCH_INDIRECT: 0
BRANCH_CONDITIONAL: 35.4
BRANCH_DIRECT_CALL: 0
BRANCH_INDIRECT_CALL: 0.00512
BRANCH_RETURN: 0

LLC TOTAL        ACCESS:    1304485 HIT:     879098 MISS:     425387
LLC LOAD         ACCESS:     501746 HIT:     354786 MISS:     146960
LLC RFO          ACCESS:      80169 HIT:      79905 MISS:        264
LLC PREFETCH     ACCESS:     613835 HIT:     337064 MISS:     276771
LLC WRITE        ACCESS:     105525 HIT:     105524 MISS:          1
LLC TRANSLATION  ACCESS:       3210 HIT:       1819 MISS:       1391
LLC PREFETCH REQUESTED:          0 ISSUED:          0 USEFUL:          0 USELESS:          0
LLC AVERAGE MISS LATENCY: 291.4 cycles
cpu0_DTLB TOTAL        ACCESS:    7781098 HIT:    7246423 MISS:     534675
cpu0_DTLB LOAD         ACCESS:    7781098 HIT:    7246423 MISS:     534675
cpu0_DTLB RFO          ACCESS:          0 HIT:          0 MISS:          0
cpu0_DTLB PREFETCH     ACCESS:          0 HIT:          0 MISS:          0
cpu0_DTLB WRITE        ACCESS:          0 HIT:          0 MISS:          0
cpu0_DTLB TRANSLATION  ACCESS:          0 HIT:          0 MISS:          0
cpu0_DTLB PREFETCH REQUESTED:          0 ISSUED:          0 USEFUL:          0 USELESS:          0
cpu0_DTLB AVERAGE MISS LATENCY: 8.659 cycles
cpu0_ITLB TOTAL        ACCESS:      10093 HIT:      10093 MISS:          0
cpu0_ITLB LOAD         ACCESS:      10093 HIT:      10093 MISS:          0
cpu0_ITLB RFO          ACCESS:          0 HIT:          0 MISS:          0
cpu0_ITLB PREFETCH     ACCESS:          0 HIT:          0 MISS:          0
cpu0_ITLB WRITE        ACCESS:          0 HIT:          0 MISS:          0
cpu0_ITLB TRANSLATION  ACCESS:          0 HIT:          0 MISS:          0
cpu0_ITLB PREFETCH REQUESTED:          0 ISSUED:          0 USEFUL:          0 USELESS:          0
cpu0_ITLB AVERAGE MISS LATENCY: -nan cycles
cpu0_L1D TOTAL        ACCESS:   16101957 HIT:   13493910 MISS:    2608047
cpu0_L1D LOAD         ACCESS:    7060611 HIT:    5961658 MISS:    1098953
cpu0_L1D RFO          ACCESS:          0 HIT:          0 MISS:          0
cpu0_L1D PREFETCH     ACCESS:    6161703 HIT:    4956661 MISS:    1205042
cpu0_L1D WRITE        ACCESS:    2872997 HIT:    2573200 MISS:     299797
cpu0_L1D TRANSLATION  ACCESS:       6646 HIT:       2391 MISS:       4255
cpu0_L1D PREFETCH REQUESTED:    7172316 ISSUED:    6161695 USEFUL:     205880 USELESS:     584274
cpu0_L1D AVERAGE MISS LATENCY: 55.31 cycles
cpu0_L1I TOTAL        ACCESS:      11241 HIT:      11241 MISS:          0
cpu0_L1I LOAD         ACCESS:      11241 HIT:      11241 MISS:          0
cpu0_L1I RFO          ACCESS:          0 HIT:          0 MISS:          0
cpu0_L1I PREFETCH     ACCESS:          0 HIT:          0 MISS:          0
cpu0_L1I WRITE        ACCESS:          0 HIT:          0 MISS:          0
cpu0_L1I TRANSLATION  ACCESS:          0 HIT:          0 MISS:          0
cpu0_L1I PREFETCH REQUESTED:          0 ISSUED:          0 USEFUL:          0 USELESS:          0
cpu0_L1I AVERAGE MISS LATENCY: -nan cycles
cpu0_L2C TOTAL        ACCESS:    1949836 HIT:     724594 MISS:    1225242
cpu0_L2C LOAD         ACCESS:     811010 HIT:     304710 MISS:     506300
cpu0_L2C RFO          ACCESS:     104306 HIT:      24137 MISS:      80169
cpu0_L2C PREFETCH     ACCESS:     878808 HIT:     243418 MISS:     635390
cpu0_L2C WRITE        ACCESS:     151458 HIT:     151285 MISS:        173
cpu0_L2C TRANSLATION  ACCESS:       4254 HIT:       1044 MISS:       3210
cpu0_L2C PREFETCH REQUESTED:      88610 ISSUED:      88610 USEFUL:      31265 USELESS:       7285
cpu0_L2C AVERAGE MISS LATENCY: 119.8 cycles
cpu0_STLB TOTAL        ACCESS:     444542 HIT:     437932 MISS:       6610
cpu0_STLB LOAD         ACCESS:     444542 HIT:     437932 MISS:       6610
cpu0_STLB RFO          ACCESS:          0 HIT:          0 MISS:          0
cpu0_STLB PREFETCH     ACCESS:          0 HIT:          0 MISS:          0
cpu0_STLB WRITE        ACCESS:          0 HIT:          0 MISS:          0
cpu0_STLB TRANSLATION  ACCESS:          0 HIT:          0 MISS:          0
cpu0_STLB PREFETCH REQUESTED:          0 ISSUED:          0 USEFUL:          0 USELESS:          0
cpu0_STLB AVERAGE MISS LATENCY: 193.9 cycles

DRAM Statistics

Channel 0 RQ ROW_BUFFER_HIT:      89236
  ROW_BUFFER_MISS:     335104
 AVG DBUS CONGESTED CYCLE: 3.855
WQ ROW_BUFFER_HIT: Channel 0 
  ROW_BUFFER_MISS:       1167
  FULL:        751
