WARNING: physical memory size is smaller than virtual memory size.

*** ChampSim Multicore Out-of-Order Simulator ***
Warmup Instructions: 25000000
Simulation Instructions: 25000000
Number of CPUs: 1
Page size: 4096

Off-chip DRAM Size: 4 GiB Channels: 1 Width: 64-bit Data Race: 800 MT/s
Heartbeat CPU 0 instructions: 10000000 cycles: 3099485 heartbeat IPC: 3.226 cumulative IPC: 3.226 (Simulation time: 00 hr 00 min 34 sec)
Heartbeat CPU 0 instructions: 20000003 cycles: 6152945 heartbeat IPC: 3.275 cumulative IPC: 3.25 (Simulation time: 00 hr 01 min 11 sec)
Warmup finished CPU 0 instructions: 25000001 cycles: 7641643 cumulative IPC: 3.272 (Simulation time: 00 hr 01 min 31 sec)
Warmup complete CPU 0 instructions: 25000001 cycles: 7641643 cumulative IPC: 3.272 (Simulation time: 00 hr 01 min 31 sec)
Heartbeat CPU 0 instructions: 30000000 cycles: 17335014 heartbeat IPC: 0.8943 cumulative IPC: 0.5158 (Simulation time: 00 hr 02 min 45 sec)
Heartbeat CPU 0 instructions: 40000000 cycles: 36564184 heartbeat IPC: 0.52 cumulative IPC: 0.5186 (Simulation time: 00 hr 05 min 14 sec)
Heartbeat CPU 0 instructions: 50000000 cycles: 60624911 heartbeat IPC: 0.4156 cumulative IPC: 0.4718 (Simulation time: 00 hr 08 min 27 sec)
Simulation finished CPU 0 instructions: 25000003 cycles: 52983270 cumulative IPC: 0.4718 (Simulation time: 00 hr 08 min 27 sec)
Simulation complete CPU 0 instructions: 25000003 cycles: 52983270 cumulative IPC: 0.4718 (Simulation time: 00 hr 08 min 27 sec)

ChampSim completed all CPUs

=== Simulation ===
CPU 0 runs ./traces/605.mcf_s-484B.champsimtrace.xz
Region of Interest Statistics

CPU 0 cumulative IPC: 0.4718 instructions: 25000003 cycles: 52983270
CPU 0 Branch Prediction Accuracy: 96.99% MPKI: 2.864 Average ROB Occupancy at Mispredict: 78.92
Branch type MPKI
BRANCH_DIRECT_JUMP: 0
BRANCH_INDIRECT: 0
BRANCH_CONDITIONAL: 2.86
BRANCH_DIRECT_CALL: 0
BRANCH_INDIRECT_CALL: 0
BRANCH_RETURN: 0

LLC TOTAL        ACCESS:     899295 HIT:     144901 MISS:     754394
LLC LOAD         ACCESS:     407614 HIT:      22523 MISS:     385091
LLC RFO          ACCESS:      47369 HIT:         41 MISS:      47328
LLC PREFETCH     ACCESS:     297772 HIT:      15633 MISS:     282139
LLC WRITE        ACCESS:     143249 HIT:     105061 MISS:      38188
LLC TRANSLATION  ACCESS:       3291 HIT:       1643 MISS:       1648
LLC PREFETCH REQUESTED:          0 ISSUED:          0 USEFUL:          0 USELESS:          0
LLC AVERAGE MISS LATENCY: 695.6 cycles
cpu0_DTLB TOTAL        ACCESS:    7872200 HIT:    7757662 MISS:     114538
cpu0_DTLB LOAD         ACCESS:    7872200 HIT:    7757662 MISS:     114538
cpu0_DTLB RFO          ACCESS:          0 HIT:          0 MISS:          0
cpu0_DTLB PREFETCH     ACCESS:          0 HIT:          0 MISS:          0
cpu0_DTLB WRITE        ACCESS:          0 HIT:          0 MISS:          0
cpu0_DTLB TRANSLATION  ACCESS:          0 HIT:          0 MISS:          0
cpu0_DTLB PREFETCH REQUESTED:          0 ISSUED:          0 USEFUL:          0 USELESS:          0
cpu0_DTLB AVERAGE MISS LATENCY: 30.38 cycles
cpu0_ITLB TOTAL        ACCESS:          0 HIT:          0 MISS:          0
cpu0_ITLB LOAD         ACCESS:          0 HIT:          0 MISS:          0
cpu0_ITLB RFO          ACCESS:          0 HIT:          0 MISS:          0
cpu0_ITLB PREFETCH     ACCESS:          0 HIT:          0 MISS:          0
cpu0_ITLB WRITE        ACCESS:          0 HIT:          0 MISS:          0
cpu0_ITLB TRANSLATION  ACCESS:          0 HIT:          0 MISS:          0
cpu0_ITLB PREFETCH REQUESTED:          0 ISSUED:          0 USEFUL:          0 USELESS:          0
cpu0_ITLB AVERAGE MISS LATENCY: -nan cycles
cpu0_L1D TOTAL        ACCESS:   13382403 HIT:   12479191 MISS:     903212
cpu0_L1D LOAD         ACCESS:    4615208 HIT:    4099483 MISS:     515725
cpu0_L1D RFO          ACCESS:          0 HIT:          0 MISS:          0
cpu0_L1D PREFETCH     ACCESS:    1557243 HIT:    1396887 MISS:     160356
cpu0_L1D WRITE        ACCESS:    7194667 HIT:    6976226 MISS:     218441
cpu0_L1D TRANSLATION  ACCESS:      15285 HIT:       6595 MISS:       8690
cpu0_L1D PREFETCH REQUESTED:   20095267 ISSUED:    1557237 USEFUL:      12661 USELESS:      73579
cpu0_L1D AVERAGE MISS LATENCY: 466.6 cycles
cpu0_L1I TOTAL        ACCESS:          0 HIT:          0 MISS:          0
cpu0_L1I LOAD         ACCESS:          0 HIT:          0 MISS:          0
cpu0_L1I RFO          ACCESS:          0 HIT:          0 MISS:          0
cpu0_L1I PREFETCH     ACCESS:          0 HIT:          0 MISS:          0
cpu0_L1I WRITE        ACCESS:          0 HIT:          0 MISS:          0
cpu0_L1I TRANSLATION  ACCESS:          0 HIT:          0 MISS:          0
cpu0_L1I PREFETCH REQUESTED:          0 ISSUED:          0 USEFUL:          0 USELESS:          0
cpu0_L1I AVERAGE MISS LATENCY: -nan cycles
cpu0_L2C TOTAL        ACCESS:    1053481 HIT:     274268 MISS:     779213
cpu0_L2C LOAD         ACCESS:     482576 HIT:      63726 MISS:     418850
cpu0_L2C RFO          ACCESS:      49393 HIT:       2024 MISS:      47369
cpu0_L2C PREFETCH     ACCESS:     353350 HIT:      44340 MISS:     309010
cpu0_L2C WRITE        ACCESS:     159472 HIT:     158779 MISS:        693
cpu0_L2C TRANSLATION  ACCESS:       8690 HIT:       5399 MISS:       3291
cpu0_L2C PREFETCH REQUESTED:     267034 ISSUED:     267034 USEFUL:      71272 USELESS:       8036
cpu0_L2C AVERAGE MISS LATENCY: 589.5 cycles
cpu0_STLB TOTAL        ACCESS:      54654 HIT:      39395 MISS:      15259
cpu0_STLB LOAD         ACCESS:      54654 HIT:      39395 MISS:      15259
cpu0_STLB RFO          ACCESS:          0 HIT:          0 MISS:          0
cpu0_STLB PREFETCH     ACCESS:          0 HIT:          0 MISS:          0
cpu0_STLB WRITE        ACCESS:          0 HIT:          0 MISS:          0
cpu0_STLB TRANSLATION  ACCESS:          0 HIT:          0 MISS:          0
cpu0_STLB PREFETCH REQUESTED:          0 ISSUED:          0 USEFUL:          0 USELESS:          0
cpu0_STLB AVERAGE MISS LATENCY: 345.7 cycles

DRAM Statistics

Channel 0 RQ ROW_BUFFER_HIT:     267398
  ROW_BUFFER_MISS:     353758
 AVG DBUS CONGESTED CYCLE: 3.92
WQ ROW_BUFFER_HIT: Channel 0 
  ROW_BUFFER_MISS:       2619
  FULL:     126418
