WARNING: physical memory size is smaller than virtual memory size.

*** ChampSim Multicore Out-of-Order Simulator ***
Warmup Instructions: 25000000
Simulation Instructions: 25000000
Number of CPUs: 1
Page size: 4096

Off-chip DRAM Size: 4 GiB Channels: 1 Width: 64-bit Data Race: 800 MT/s
Heartbeat CPU 0 instructions: 10000000 cycles: 2569687 heartbeat IPC: 3.892 cumulative IPC: 3.892 (Simulation time: 00 hr 00 min 31 sec)
Heartbeat CPU 0 instructions: 20000000 cycles: 5139074 heartbeat IPC: 3.892 cumulative IPC: 3.892 (Simulation time: 00 hr 01 min 06 sec)
Warmup finished CPU 0 instructions: 25000002 cycles: 6421454 cumulative IPC: 3.893 (Simulation time: 00 hr 01 min 24 sec)
Warmup complete CPU 0 instructions: 25000002 cycles: 6421454 cumulative IPC: 3.893 (Simulation time: 00 hr 01 min 24 sec)
Heartbeat CPU 0 instructions: 30000003 cycles: 19460501 heartbeat IPC: 0.6983 cumulative IPC: 0.3835 (Simulation time: 00 hr 02 min 44 sec)
Heartbeat CPU 0 instructions: 40000001 cycles: 45831365 heartbeat IPC: 0.3792 cumulative IPC: 0.3806 (Simulation time: 00 hr 05 min 34 sec)
Heartbeat CPU 0 instructions: 50000003 cycles: 72619283 heartbeat IPC: 0.3733 cumulative IPC: 0.3777 (Simulation time: 00 hr 08 min 31 sec)
Simulation finished CPU 0 instructions: 25000001 cycles: 66197830 cumulative IPC: 0.3777 (Simulation time: 00 hr 08 min 31 sec)
Simulation complete CPU 0 instructions: 25000001 cycles: 66197830 cumulative IPC: 0.3777 (Simulation time: 00 hr 08 min 31 sec)

ChampSim completed all CPUs

=== Simulation ===
CPU 0 runs ./traces/605.mcf_s-1152B.champsimtrace.xz
Region of Interest Statistics

CPU 0 cumulative IPC: 0.3777 instructions: 25000001 cycles: 66197830
CPU 0 Branch Prediction Accuracy: 85.61% MPKI: 35.89 Average ROB Occupancy at Mispredict: 11.28
Branch type MPKI
BRANCH_DIRECT_JUMP: 0.211
BRANCH_INDIRECT: 0
BRANCH_CONDITIONAL: 35.7
BRANCH_DIRECT_CALL: 0
BRANCH_INDIRECT_CALL: 0.00464
BRANCH_RETURN: 0

LLC TOTAL        ACCESS:    1863387 HIT:    1288239 MISS:     575148
LLC LOAD         ACCESS:     768271 HIT:     579172 MISS:     189099
LLC RFO          ACCESS:      75385 HIT:      75119 MISS:        266
LLC PREFETCH     ACCESS:     910452 HIT:     526266 MISS:     384186
LLC WRITE        ACCESS:     106349 HIT:     106257 MISS:         92
LLC TRANSLATION  ACCESS:       2930 HIT:       1425 MISS:       1505
LLC PREFETCH REQUESTED:          0 ISSUED:          0 USEFUL:          0 USELESS:          0
LLC AVERAGE MISS LATENCY: 283 cycles
cpu0_DTLB TOTAL        ACCESS:    7657325 HIT:    6904033 MISS:     753292
cpu0_DTLB LOAD         ACCESS:    7657325 HIT:    6904033 MISS:     753292
cpu0_DTLB RFO          ACCESS:          0 HIT:          0 MISS:          0
cpu0_DTLB PREFETCH     ACCESS:          0 HIT:          0 MISS:          0
cpu0_DTLB WRITE        ACCESS:          0 HIT:          0 MISS:          0
cpu0_DTLB TRANSLATION  ACCESS:          0 HIT:          0 MISS:          0
cpu0_DTLB PREFETCH REQUESTED:          0 ISSUED:          0 USEFUL:          0 USELESS:          0
cpu0_DTLB AVERAGE MISS LATENCY: 8.772 cycles
cpu0_ITLB TOTAL        ACCESS:      14175 HIT:      14175 MISS:          0
cpu0_ITLB LOAD         ACCESS:      14175 HIT:      14175 MISS:          0
cpu0_ITLB RFO          ACCESS:          0 HIT:          0 MISS:          0
cpu0_ITLB PREFETCH     ACCESS:          0 HIT:          0 MISS:          0
cpu0_ITLB WRITE        ACCESS:          0 HIT:          0 MISS:          0
cpu0_ITLB TRANSLATION  ACCESS:          0 HIT:          0 MISS:          0
cpu0_ITLB PREFETCH REQUESTED:          0 ISSUED:          0 USEFUL:          0 USELESS:          0
cpu0_ITLB AVERAGE MISS LATENCY: -nan cycles
cpu0_L1D TOTAL        ACCESS:   15856699 HIT:   12325471 MISS:    3531228
cpu0_L1D LOAD         ACCESS:    7121861 HIT:    5554478 MISS:    1567383
cpu0_L1D RFO          ACCESS:          0 HIT:          0 MISS:          0
cpu0_L1D PREFETCH     ACCESS:    6134160 HIT:    4458765 MISS:    1675395
cpu0_L1D WRITE        ACCESS:    2592485 HIT:    2308287 MISS:     284198
cpu0_L1D TRANSLATION  ACCESS:       8193 HIT:       3941 MISS:       4252
cpu0_L1D PREFETCH REQUESTED:    7797164 ISSUED:    6134160 USEFUL:     276866 USELESS:     756363
cpu0_L1D AVERAGE MISS LATENCY: 52.17 cycles
cpu0_L1I TOTAL        ACCESS:      16035 HIT:      16035 MISS:          0
cpu0_L1I LOAD         ACCESS:      16035 HIT:      16035 MISS:          0
cpu0_L1I RFO          ACCESS:          0 HIT:          0 MISS:          0
cpu0_L1I PREFETCH     ACCESS:          0 HIT:          0 MISS:          0
cpu0_L1I WRITE        ACCESS:          0 HIT:          0 MISS:          0
cpu0_L1I TRANSLATION  ACCESS:          0 HIT:          0 MISS:          0
cpu0_L1I PREFETCH REQUESTED:          0 ISSUED:          0 USEFUL:          0 USELESS:          0
cpu0_L1I AVERAGE MISS LATENCY: -nan cycles
cpu0_L2C TOTAL        ACCESS:    2472002 HIT:     657370 MISS:    1814632
cpu0_L2C LOAD         ACCESS:    1054350 HIT:     276571 MISS:     777779
cpu0_L2C RFO          ACCESS:      97558 HIT:      22173 MISS:      75385
cpu0_L2C PREFETCH     ACCESS:    1172112 HIT:     213820 MISS:     958292
cpu0_L2C WRITE        ACCESS:     143730 HIT:     143484 MISS:        246
cpu0_L2C TRANSLATION  ACCESS:       4252 HIT:       1322 MISS:       2930
cpu0_L2C PREFETCH REQUESTED:     138810 ISSUED:     138810 USEFUL:      46243 USELESS:       7234
cpu0_L2C AVERAGE MISS LATENCY: 106.7 cycles
cpu0_STLB TOTAL        ACCESS:     639444 HIT:     631315 MISS:       8129
cpu0_STLB LOAD         ACCESS:     639444 HIT:     631315 MISS:       8129
cpu0_STLB RFO          ACCESS:          0 HIT:          0 MISS:          0
cpu0_STLB PREFETCH     ACCESS:          0 HIT:          0 MISS:          0
cpu0_STLB WRITE        ACCESS:          0 HIT:          0 MISS:          0
cpu0_STLB TRANSLATION  ACCESS:          0 HIT:          0 MISS:          0
cpu0_STLB PREFETCH REQUESTED:          0 ISSUED:          0 USEFUL:          0 USELESS:          0
cpu0_STLB AVERAGE MISS LATENCY: 221.9 cycles

DRAM Statistics

Channel 0 RQ ROW_BUFFER_HIT:     204644
  ROW_BUFFER_MISS:     362190
 AVG DBUS CONGESTED CYCLE: 3.83
WQ ROW_BUFFER_HIT: Channel 0 
  ROW_BUFFER_MISS:       1806
  FULL:        682
