WARNING: physical memory size is smaller than virtual memory size.

*** ChampSim Multicore Out-of-Order Simulator ***
Warmup Instructions: 25000000
Simulation Instructions: 25000000
Number of CPUs: 1
Page size: 4096

Off-chip DRAM Size: 4 GiB Channels: 1 Width: 64-bit Data Race: 800 MT/s
Heartbeat CPU 0 instructions: 10000000 cycles: 3499441 heartbeat IPC: 2.858 cumulative IPC: 2.858 (Simulation time: 00 hr 01 min 06 sec)
Heartbeat CPU 0 instructions: 20000000 cycles: 6997657 heartbeat IPC: 2.859 cumulative IPC: 2.858 (Simulation time: 00 hr 02 min 11 sec)
Warmup finished CPU 0 instructions: 25000001 cycles: 8748863 cumulative IPC: 2.858 (Simulation time: 00 hr 02 min 44 sec)
Warmup complete CPU 0 instructions: 25000001 cycles: 8748863 cumulative IPC: 2.858 (Simulation time: 00 hr 02 min 44 sec)
Heartbeat CPU 0 instructions: 30000001 cycles: 75985248 heartbeat IPC: 0.145 cumulative IPC: 0.07436 (Simulation time: 00 hr 10 min 38 sec)
Heartbeat CPU 0 instructions: 40000000 cycles: 210287513 heartbeat IPC: 0.07446 cumulative IPC: 0.07443 (Simulation time: 00 hr 26 min 59 sec)
Heartbeat CPU 0 instructions: 50000000 cycles: 345000601 heartbeat IPC: 0.07423 cumulative IPC: 0.07435 (Simulation time: 00 hr 33 min 17 sec)
Simulation finished CPU 0 instructions: 25000003 cycles: 336251740 cumulative IPC: 0.07435 (Simulation time: 00 hr 33 min 17 sec)
Simulation complete CPU 0 instructions: 25000003 cycles: 336251740 cumulative IPC: 0.07435 (Simulation time: 00 hr 33 min 17 sec)

ChampSim completed all CPUs

=== Simulation ===
CPU 0 runs ./traces/605.mcf_s-1644B.champsimtrace.xz
Region of Interest Statistics

CPU 0 cumulative IPC: 0.07435 instructions: 25000003 cycles: 336251740
CPU 0 Branch Prediction Accuracy: 93.34% MPKI: 8.275 Average ROB Occupancy at Mispredict: 80.57
Branch type MPKI
BRANCH_DIRECT_JUMP: 0
BRANCH_INDIRECT: 0
BRANCH_CONDITIONAL: 8.27
BRANCH_DIRECT_CALL: 0
BRANCH_INDIRECT_CALL: 0
BRANCH_RETURN: 0

LLC TOTAL        ACCESS:    5479151 HIT:    2990237 MISS:    2488914
LLC LOAD         ACCESS:     756954 HIT:     440372 MISS:     316582
LLC RFO          ACCESS:    1093078 HIT:        328 MISS:    1092750
LLC PREFETCH     ACCESS:     803275 HIT:     370776 MISS:     432499
LLC WRITE        ACCESS:    2215452 HIT:    2143057 MISS:      72395
LLC TRANSLATION  ACCESS:     610392 HIT:      35704 MISS:     574688
LLC PREFETCH REQUESTED:          0 ISSUED:          0 USEFUL:          0 USELESS:          0
LLC AVERAGE MISS LATENCY: 937.8 cycles
cpu0_DTLB TOTAL        ACCESS:    8320920 HIT:    5171195 MISS:    3149725
cpu0_DTLB LOAD         ACCESS:    8320920 HIT:    5171195 MISS:    3149725
cpu0_DTLB RFO          ACCESS:          0 HIT:          0 MISS:          0
cpu0_DTLB PREFETCH     ACCESS:          0 HIT:          0 MISS:          0
cpu0_DTLB WRITE        ACCESS:          0 HIT:          0 MISS:          0
cpu0_DTLB TRANSLATION  ACCESS:          0 HIT:          0 MISS:          0
cpu0_DTLB PREFETCH REQUESTED:          0 ISSUED:          0 USEFUL:          0 USELESS:          0
cpu0_DTLB AVERAGE MISS LATENCY: 194.6 cycles
cpu0_ITLB TOTAL        ACCESS:          0 HIT:          0 MISS:          0
cpu0_ITLB LOAD         ACCESS:          0 HIT:          0 MISS:          0
cpu0_ITLB RFO          ACCESS:          0 HIT:          0 MISS:          0
cpu0_ITLB PREFETCH     ACCESS:          0 HIT:          0 MISS:          0
cpu0_ITLB WRITE        ACCESS:          0 HIT:          0 MISS:          0
cpu0_ITLB TRANSLATION  ACCESS:          0 HIT:          0 MISS:          0
cpu0_ITLB PREFETCH REQUESTED:          0 ISSUED:          0 USEFUL:          0 USELESS:          0
cpu0_ITLB AVERAGE MISS LATENCY: -nan cycles
cpu0_L1D TOTAL        ACCESS:   15049572 HIT:    6385189 MISS:    8664383
cpu0_L1D LOAD         ACCESS:    3032260 HIT:    1638700 MISS:    1393560
cpu0_L1D RFO          ACCESS:          0 HIT:          0 MISS:          0
cpu0_L1D PREFETCH     ACCESS:    2634750 HIT:    1070058 MISS:    1564692
cpu0_L1D WRITE        ACCESS:    8515780 HIT:    3595767 MISS:    4920013
cpu0_L1D TRANSLATION  ACCESS:     866782 HIT:      80664 MISS:     786118
cpu0_L1D PREFETCH REQUESTED:    3181569 ISSUED:    2634742 USEFUL:     299828 USELESS:     475567
cpu0_L1D AVERAGE MISS LATENCY: 252.2 cycles
cpu0_L1I TOTAL        ACCESS:          0 HIT:          0 MISS:          0
cpu0_L1I LOAD         ACCESS:          0 HIT:          0 MISS:          0
cpu0_L1I RFO          ACCESS:          0 HIT:          0 MISS:          0
cpu0_L1I PREFETCH     ACCESS:          0 HIT:          0 MISS:          0
cpu0_L1I WRITE        ACCESS:          0 HIT:          0 MISS:          0
cpu0_L1I TRANSLATION  ACCESS:          0 HIT:          0 MISS:          0
cpu0_L1I PREFETCH REQUESTED:          0 ISSUED:          0 USEFUL:          0 USELESS:          0
cpu0_L1I AVERAGE MISS LATENCY: -nan cycles
cpu0_L2C TOTAL        ACCESS:    6015693 HIT:    2638302 MISS:    3377391
cpu0_L2C LOAD         ACCESS:     869517 HIT:      97531 MISS:     771986
cpu0_L2C RFO          ACCESS:    1094521 HIT:       1443 MISS:    1093078
cpu0_L2C PREFETCH     ACCESS:    1004767 HIT:     104691 MISS:     900076
cpu0_L2C WRITE        ACCESS:    2263778 HIT:    2261919 MISS:       1859
cpu0_L2C TRANSLATION  ACCESS:     783110 HIT:     172718 MISS:     610392
cpu0_L2C PREFETCH REQUESTED:     229302 ISSUED:     229302 USEFUL:     135803 USELESS:       9860
cpu0_L2C AVERAGE MISS LATENCY: 707.6 cycles
cpu0_STLB TOTAL        ACCESS:     727476 HIT:     130419 MISS:     597057
cpu0_STLB LOAD         ACCESS:     727476 HIT:     130419 MISS:     597057
cpu0_STLB RFO          ACCESS:          0 HIT:          0 MISS:          0
cpu0_STLB PREFETCH     ACCESS:          0 HIT:          0 MISS:          0
cpu0_STLB WRITE        ACCESS:          0 HIT:          0 MISS:          0
cpu0_STLB TRANSLATION  ACCESS:          0 HIT:          0 MISS:          0
cpu0_STLB PREFETCH REQUESTED:          0 ISSUED:          0 USEFUL:          0 USELESS:          0
cpu0_STLB AVERAGE MISS LATENCY: 1082 cycles

DRAM Statistics

Channel 0 RQ ROW_BUFFER_HIT:     107768
  ROW_BUFFER_MISS:    2307673
 AVG DBUS CONGESTED CYCLE: 3.985
WQ ROW_BUFFER_HIT: Channel 0 
  ROW_BUFFER_MISS:       3807
  FULL:    1765636
