WARNING: physical memory size is smaller than virtual memory size.

*** ChampSim Multicore Out-of-Order Simulator ***
Warmup Instructions: 25000000
Simulation Instructions: 25000000
Number of CPUs: 1
Page size: 4096

Off-chip DRAM Size: 4 GiB Channels: 1 Width: 64-bit Data Race: 800 MT/s
Heartbeat CPU 0 instructions: 10000000 cycles: 3099470 heartbeat IPC: 3.226 cumulative IPC: 3.226 (Simulation time: 00 hr 00 min 42 sec)
Heartbeat CPU 0 instructions: 20000003 cycles: 6152935 heartbeat IPC: 3.275 cumulative IPC: 3.25 (Simulation time: 00 hr 01 min 30 sec)
Warmup finished CPU 0 instructions: 25000002 cycles: 7641581 cumulative IPC: 3.272 (Simulation time: 00 hr 01 min 55 sec)
Warmup complete CPU 0 instructions: 25000002 cycles: 7641581 cumulative IPC: 3.272 (Simulation time: 00 hr 01 min 55 sec)
Heartbeat CPU 0 instructions: 30000000 cycles: 17248169 heartbeat IPC: 0.9013 cumulative IPC: 0.5205 (Simulation time: 00 hr 03 min 26 sec)
Heartbeat CPU 0 instructions: 40000000 cycles: 36235799 heartbeat IPC: 0.5267 cumulative IPC: 0.5246 (Simulation time: 00 hr 06 min 24 sec)
Heartbeat CPU 0 instructions: 50000000 cycles: 60346421 heartbeat IPC: 0.4148 cumulative IPC: 0.4743 (Simulation time: 00 hr 10 min 28 sec)
Simulation finished CPU 0 instructions: 25000002 cycles: 52704842 cumulative IPC: 0.4743 (Simulation time: 00 hr 10 min 28 sec)
Simulation complete CPU 0 instructions: 25000002 cycles: 52704842 cumulative IPC: 0.4743 (Simulation time: 00 hr 10 min 28 sec)

ChampSim completed all CPUs

=== Simulation ===
CPU 0 runs ./traces/605.mcf_s-484B.champsimtrace.xz
Region of Interest Statistics

CPU 0 cumulative IPC: 0.4743 instructions: 25000002 cycles: 52704842
CPU 0 Branch Prediction Accuracy: 96.99% MPKI: 2.864 Average ROB Occupancy at Mispredict: 78.89
Branch type MPKI
BRANCH_DIRECT_JUMP: 0
BRANCH_INDIRECT: 0
BRANCH_CONDITIONAL: 2.86
BRANCH_DIRECT_CALL: 0
BRANCH_INDIRECT_CALL: 0
BRANCH_RETURN: 0

LLC TOTAL        ACCESS:     899708 HIT:     174919 MISS:     724789
LLC LOAD         ACCESS:     407687 HIT:      22375 MISS:     385312
LLC RFO          ACCESS:      47371 HIT:         40 MISS:      47331
LLC PREFETCH     ACCESS:     298130 HIT:       8619 MISS:     289511
LLC WRITE        ACCESS:     143239 HIT:     142108 MISS:       1131
LLC TRANSLATION  ACCESS:       3281 HIT:       1777 MISS:       1504
LLC PREFETCH REQUESTED:          0 ISSUED:          0 USEFUL:          0 USELESS:          0
LLC AVERAGE MISS LATENCY: 739.4 cycles
cpu0_DTLB TOTAL        ACCESS:    7870442 HIT:    7756274 MISS:     114168
cpu0_DTLB LOAD         ACCESS:    7870442 HIT:    7756274 MISS:     114168
cpu0_DTLB RFO          ACCESS:          0 HIT:          0 MISS:          0
cpu0_DTLB PREFETCH     ACCESS:          0 HIT:          0 MISS:          0
cpu0_DTLB WRITE        ACCESS:          0 HIT:          0 MISS:          0
cpu0_DTLB TRANSLATION  ACCESS:          0 HIT:          0 MISS:          0
cpu0_DTLB PREFETCH REQUESTED:          0 ISSUED:          0 USEFUL:          0 USELESS:          0
cpu0_DTLB AVERAGE MISS LATENCY: 29.06 cycles
cpu0_ITLB TOTAL        ACCESS:          0 HIT:          0 MISS:          0
cpu0_ITLB LOAD         ACCESS:          0 HIT:          0 MISS:          0
cpu0_ITLB RFO          ACCESS:          0 HIT:          0 MISS:          0
cpu0_ITLB PREFETCH     ACCESS:          0 HIT:          0 MISS:          0
cpu0_ITLB WRITE        ACCESS:          0 HIT:          0 MISS:          0
cpu0_ITLB TRANSLATION  ACCESS:          0 HIT:          0 MISS:          0
cpu0_ITLB PREFETCH REQUESTED:          0 ISSUED:          0 USEFUL:          0 USELESS:          0
cpu0_ITLB AVERAGE MISS LATENCY: -nan cycles
cpu0_L1D TOTAL        ACCESS:   13381633 HIT:   12478103 MISS:     903530
cpu0_L1D LOAD         ACCESS:    4615278 HIT:    4099473 MISS:     515805
cpu0_L1D RFO          ACCESS:          0 HIT:          0 MISS:          0
cpu0_L1D PREFETCH     ACCESS:    1558036 HIT:    1397378 MISS:     160658
cpu0_L1D WRITE        ACCESS:    7193034 HIT:    6974656 MISS:     218378
cpu0_L1D TRANSLATION  ACCESS:      15285 HIT:       6596 MISS:       8689
cpu0_L1D PREFETCH REQUESTED:   20705397 ISSUED:    1558036 USEFUL:      12648 USELESS:      73815
cpu0_L1D AVERAGE MISS LATENCY: 472.5 cycles
cpu0_L1I TOTAL        ACCESS:          0 HIT:          0 MISS:          0
cpu0_L1I LOAD         ACCESS:          0 HIT:          0 MISS:          0
cpu0_L1I RFO          ACCESS:          0 HIT:          0 MISS:          0
cpu0_L1I PREFETCH     ACCESS:          0 HIT:          0 MISS:          0
cpu0_L1I WRITE        ACCESS:          0 HIT:          0 MISS:          0
cpu0_L1I TRANSLATION  ACCESS:          0 HIT:          0 MISS:          0
cpu0_L1I PREFETCH REQUESTED:          0 ISSUED:          0 USEFUL:          0 USELESS:          0
cpu0_L1I AVERAGE MISS LATENCY: -nan cycles
cpu0_L2C TOTAL        ACCESS:    1053812 HIT:     274206 MISS:     779606
cpu0_L2C LOAD         ACCESS:     482588 HIT:      63712 MISS:     418876
cpu0_L2C RFO          ACCESS:      49391 HIT:       2020 MISS:      47371
cpu0_L2C PREFETCH     ACCESS:     353673 HIT:      44283 MISS:     309390
cpu0_L2C WRITE        ACCESS:     159471 HIT:     158783 MISS:        688
cpu0_L2C TRANSLATION  ACCESS:       8689 HIT:       5408 MISS:       3281
cpu0_L2C PREFETCH REQUESTED:     267135 ISSUED:     267135 USEFUL:      71210 USELESS:       7971
cpu0_L2C AVERAGE MISS LATENCY: 595.5 cycles
cpu0_STLB TOTAL        ACCESS:      54656 HIT:      39397 MISS:      15259
cpu0_STLB LOAD         ACCESS:      54656 HIT:      39397 MISS:      15259
cpu0_STLB RFO          ACCESS:          0 HIT:          0 MISS:          0
cpu0_STLB PREFETCH     ACCESS:          0 HIT:          0 MISS:          0
cpu0_STLB WRITE        ACCESS:          0 HIT:          0 MISS:          0
cpu0_STLB TRANSLATION  ACCESS:          0 HIT:          0 MISS:          0
cpu0_STLB PREFETCH REQUESTED:          0 ISSUED:          0 USEFUL:          0 USELESS:          0
cpu0_STLB AVERAGE MISS LATENCY: 341 cycles

DRAM Statistics

Channel 0 RQ ROW_BUFFER_HIT:     266194
  ROW_BUFFER_MISS:     358418
 AVG DBUS CONGESTED CYCLE: 3.917
WQ ROW_BUFFER_HIT: Channel 0 
  ROW_BUFFER_MISS:       3787
  FULL:     122227
