WARNING: physical memory size is smaller than virtual memory size.

*** ChampSim Multicore Out-of-Order Simulator ***
Warmup Instructions: 25000000
Simulation Instructions: 25000000
Number of CPUs: 1
Page size: 4096

Off-chip DRAM Size: 4 GiB Channels: 1 Width: 64-bit Data Race: 800 MT/s
Heartbeat CPU 0 instructions: 10000001 cycles: 2704002 heartbeat IPC: 3.698 cumulative IPC: 3.698 (Simulation time: 00 hr 00 min 39 sec)
Heartbeat CPU 0 instructions: 20000001 cycles: 5407609 heartbeat IPC: 3.699 cumulative IPC: 3.698 (Simulation time: 00 hr 01 min 22 sec)
Warmup finished CPU 0 instructions: 25000003 cycles: 6759478 cumulative IPC: 3.699 (Simulation time: 00 hr 01 min 45 sec)
Warmup complete CPU 0 instructions: 25000003 cycles: 6759478 cumulative IPC: 3.699 (Simulation time: 00 hr 01 min 45 sec)
Heartbeat CPU 0 instructions: 30000003 cycles: 9170301 heartbeat IPC: 2.658 cumulative IPC: 2.074 (Simulation time: 00 hr 02 min 19 sec)
Heartbeat CPU 0 instructions: 40000003 cycles: 13836264 heartbeat IPC: 2.143 cumulative IPC: 2.12 (Simulation time: 00 hr 03 min 29 sec)
Heartbeat CPU 0 instructions: 50000001 cycles: 18867192 heartbeat IPC: 1.988 cumulative IPC: 2.065 (Simulation time: 00 hr 04 min 45 sec)
Simulation finished CPU 0 instructions: 25000002 cycles: 12107716 cumulative IPC: 2.065 (Simulation time: 00 hr 04 min 45 sec)
Simulation complete CPU 0 instructions: 25000002 cycles: 12107716 cumulative IPC: 2.065 (Simulation time: 00 hr 04 min 45 sec)

ChampSim completed all CPUs

=== Simulation ===
CPU 0 runs ./traces/607.cactuBSSN_s-3477B.champsimtrace.xz
Region of Interest Statistics

CPU 0 cumulative IPC: 2.065 instructions: 25000002 cycles: 12107716
CPU 0 Branch Prediction Accuracy: 91.83% MPKI: 0.7242 Average ROB Occupancy at Mispredict: 291.3
Branch type MPKI
BRANCH_DIRECT_JUMP: 0
BRANCH_INDIRECT: 4e-05
BRANCH_CONDITIONAL: 0.363
BRANCH_DIRECT_CALL: 0
BRANCH_INDIRECT_CALL: 0
BRANCH_RETURN: 0.362

LLC TOTAL        ACCESS:     257410 HIT:     172920 MISS:      84490
LLC LOAD         ACCESS:     110641 HIT:      75858 MISS:      34783
LLC RFO          ACCESS:      20987 HIT:       6360 MISS:      14627
LLC PREFETCH     ACCESS:     102735 HIT:      70619 MISS:      32116
LLC WRITE        ACCESS:      21333 HIT:      19427 MISS:       1906
LLC TRANSLATION  ACCESS:       1714 HIT:        656 MISS:       1058
LLC PREFETCH REQUESTED:          0 ISSUED:          0 USEFUL:          0 USELESS:          0
LLC AVERAGE MISS LATENCY: 771.9 cycles
cpu0_DTLB TOTAL        ACCESS:    6364966 HIT:    5258079 MISS:    1106887
cpu0_DTLB LOAD         ACCESS:    6364966 HIT:    5258079 MISS:    1106887
cpu0_DTLB RFO          ACCESS:          0 HIT:          0 MISS:          0
cpu0_DTLB PREFETCH     ACCESS:          0 HIT:          0 MISS:          0
cpu0_DTLB WRITE        ACCESS:          0 HIT:          0 MISS:          0
cpu0_DTLB TRANSLATION  ACCESS:          0 HIT:          0 MISS:          0
cpu0_DTLB PREFETCH REQUESTED:          0 ISSUED:          0 USEFUL:          0 USELESS:          0
cpu0_DTLB AVERAGE MISS LATENCY: 7.265 cycles
cpu0_ITLB TOTAL        ACCESS:    3036350 HIT:    3036350 MISS:          0
cpu0_ITLB LOAD         ACCESS:    3036350 HIT:    3036350 MISS:          0
cpu0_ITLB RFO          ACCESS:          0 HIT:          0 MISS:          0
cpu0_ITLB PREFETCH     ACCESS:          0 HIT:          0 MISS:          0
cpu0_ITLB WRITE        ACCESS:          0 HIT:          0 MISS:          0
cpu0_ITLB TRANSLATION  ACCESS:          0 HIT:          0 MISS:          0
cpu0_ITLB PREFETCH REQUESTED:          0 ISSUED:          0 USEFUL:          0 USELESS:          0
cpu0_ITLB AVERAGE MISS LATENCY: -nan cycles
cpu0_L1D TOTAL        ACCESS:    9451504 HIT:    7162270 MISS:    2289234
cpu0_L1D LOAD         ACCESS:    6356130 HIT:    4435830 MISS:    1920300
cpu0_L1D RFO          ACCESS:          0 HIT:          0 MISS:          0
cpu0_L1D PREFETCH     ACCESS:    1099255 HIT:     929893 MISS:     169362
cpu0_L1D WRITE        ACCESS:    1994350 HIT:    1796530 MISS:     197820
cpu0_L1D TRANSLATION  ACCESS:       1769 HIT:         17 MISS:       1752
cpu0_L1D PREFETCH REQUESTED:    7487976 ISSUED:    1099255 USEFUL:      15305 USELESS:     121443
cpu0_L1D AVERAGE MISS LATENCY: 37.7 cycles
cpu0_L1I TOTAL        ACCESS:    4174901 HIT:    2938970 MISS:    1235931
cpu0_L1I LOAD         ACCESS:    4174901 HIT:    2938970 MISS:    1235931
cpu0_L1I RFO          ACCESS:          0 HIT:          0 MISS:          0
cpu0_L1I PREFETCH     ACCESS:          0 HIT:          0 MISS:          0
cpu0_L1I WRITE        ACCESS:          0 HIT:          0 MISS:          0
cpu0_L1I TRANSLATION  ACCESS:          0 HIT:          0 MISS:          0
cpu0_L1I PREFETCH REQUESTED:          0 ISSUED:          0 USEFUL:          0 USELESS:          0
cpu0_L1I AVERAGE MISS LATENCY: 6.347 cycles
cpu0_L2C TOTAL        ACCESS:    3211482 HIT:    2974844 MISS:     236638
cpu0_L2C LOAD         ACCESS:    2530813 HIT:    2420167 MISS:     110646
cpu0_L2C RFO          ACCESS:     170062 HIT:     148865 MISS:      21197
cpu0_L2C PREFETCH     ACCESS:     315497 HIT:     212489 MISS:     103008
cpu0_L2C WRITE        ACCESS:     193359 HIT:     193286 MISS:         73
cpu0_L2C TRANSLATION  ACCESS:       1751 HIT:         37 MISS:       1714
cpu0_L2C PREFETCH REQUESTED:     206306 ISSUED:     178722 USEFUL:      45634 USELESS:        340
cpu0_L2C AVERAGE MISS LATENCY: 293.7 cycles
cpu0_STLB TOTAL        ACCESS:     949194 HIT:     947989 MISS:       1205
cpu0_STLB LOAD         ACCESS:     949194 HIT:     947989 MISS:       1205
cpu0_STLB RFO          ACCESS:          0 HIT:          0 MISS:          0
cpu0_STLB PREFETCH     ACCESS:          0 HIT:          0 MISS:          0
cpu0_STLB WRITE        ACCESS:          0 HIT:          0 MISS:          0
cpu0_STLB TRANSLATION  ACCESS:          0 HIT:          0 MISS:          0
cpu0_STLB PREFETCH REQUESTED:          0 ISSUED:          0 USEFUL:          0 USELESS:          0
cpu0_STLB AVERAGE MISS LATENCY: 1012 cycles

DRAM Statistics

Channel 0 RQ ROW_BUFFER_HIT:      35359
  ROW_BUFFER_MISS:      47206
 AVG DBUS CONGESTED CYCLE: 3.873
WQ ROW_BUFFER_HIT: Channel 0 
  ROW_BUFFER_MISS:       1300
  FULL:      14508
