WARNING: physical memory size is smaller than virtual memory size.

*** ChampSim Multicore Out-of-Order Simulator ***
Warmup Instructions: 25000000
Simulation Instructions: 25000000
Number of CPUs: 1
Page size: 4096

Off-chip DRAM Size: 4 GiB Channels: 1 Width: 64-bit Data Race: 800 MT/s
Heartbeat CPU 0 instructions: 10000002 cycles: 2700093 heartbeat IPC: 3.704 cumulative IPC: 3.704 (Simulation time: 00 hr 00 min 41 sec)
Heartbeat CPU 0 instructions: 20000001 cycles: 5398196 heartbeat IPC: 3.706 cumulative IPC: 3.705 (Simulation time: 00 hr 01 min 26 sec)
Warmup finished CPU 0 instructions: 25000002 cycles: 6747567 cumulative IPC: 3.705 (Simulation time: 00 hr 01 min 49 sec)
Warmup complete CPU 0 instructions: 25000002 cycles: 6747567 cumulative IPC: 3.705 (Simulation time: 00 hr 01 min 49 sec)
Heartbeat CPU 0 instructions: 30000000 cycles: 9095366 heartbeat IPC: 2.705 cumulative IPC: 2.13 (Simulation time: 00 hr 02 min 23 sec)
Heartbeat CPU 0 instructions: 40000000 cycles: 13753822 heartbeat IPC: 2.147 cumulative IPC: 2.141 (Simulation time: 00 hr 03 min 33 sec)
Heartbeat CPU 0 instructions: 50000000 cycles: 18471869 heartbeat IPC: 2.12 cumulative IPC: 2.132 (Simulation time: 00 hr 04 min 45 sec)
Simulation finished CPU 0 instructions: 25000002 cycles: 11724304 cumulative IPC: 2.132 (Simulation time: 00 hr 04 min 45 sec)
Simulation complete CPU 0 instructions: 25000002 cycles: 11724304 cumulative IPC: 2.132 (Simulation time: 00 hr 04 min 45 sec)

ChampSim completed all CPUs

=== Simulation ===
CPU 0 runs ./traces/607.cactuBSSN_s-2421B.champsimtrace.xz
Region of Interest Statistics

CPU 0 cumulative IPC: 2.132 instructions: 25000002 cycles: 11724304
CPU 0 Branch Prediction Accuracy: 91.83% MPKI: 0.728 Average ROB Occupancy at Mispredict: 304
Branch type MPKI
BRANCH_DIRECT_JUMP: 0
BRANCH_INDIRECT: 0
BRANCH_CONDITIONAL: 0.365
BRANCH_DIRECT_CALL: 0
BRANCH_INDIRECT_CALL: 0
BRANCH_RETURN: 0.363

LLC TOTAL        ACCESS:     245358 HIT:     168397 MISS:      76961
LLC LOAD         ACCESS:     102092 HIT:      69734 MISS:      32358
LLC RFO          ACCESS:      19928 HIT:       5201 MISS:      14727
LLC PREFETCH     ACCESS:     101698 HIT:      74516 MISS:      27182
LLC WRITE        ACCESS:      20137 HIT:      18280 MISS:       1857
LLC TRANSLATION  ACCESS:       1503 HIT:        666 MISS:        837
LLC PREFETCH REQUESTED:          0 ISSUED:          0 USEFUL:          0 USELESS:          0
LLC AVERAGE MISS LATENCY: 768 cycles
cpu0_DTLB TOTAL        ACCESS:    6180827 HIT:    5043256 MISS:    1137571
cpu0_DTLB LOAD         ACCESS:    6180827 HIT:    5043256 MISS:    1137571
cpu0_DTLB RFO          ACCESS:          0 HIT:          0 MISS:          0
cpu0_DTLB PREFETCH     ACCESS:          0 HIT:          0 MISS:          0
cpu0_DTLB WRITE        ACCESS:          0 HIT:          0 MISS:          0
cpu0_DTLB TRANSLATION  ACCESS:          0 HIT:          0 MISS:          0
cpu0_DTLB PREFETCH REQUESTED:          0 ISSUED:          0 USEFUL:          0 USELESS:          0
cpu0_DTLB AVERAGE MISS LATENCY: 6.835 cycles
cpu0_ITLB TOTAL        ACCESS:    3011175 HIT:    3011175 MISS:          0
cpu0_ITLB LOAD         ACCESS:    3011175 HIT:    3011175 MISS:          0
cpu0_ITLB RFO          ACCESS:          0 HIT:          0 MISS:          0
cpu0_ITLB PREFETCH     ACCESS:          0 HIT:          0 MISS:          0
cpu0_ITLB WRITE        ACCESS:          0 HIT:          0 MISS:          0
cpu0_ITLB TRANSLATION  ACCESS:          0 HIT:          0 MISS:          0
cpu0_ITLB PREFETCH REQUESTED:          0 ISSUED:          0 USEFUL:          0 USELESS:          0
cpu0_ITLB AVERAGE MISS LATENCY: -nan cycles
cpu0_L1D TOTAL        ACCESS:    9325153 HIT:    7018003 MISS:    2307150
cpu0_L1D LOAD         ACCESS:    6310246 HIT:    4369829 MISS:    1940417
cpu0_L1D RFO          ACCESS:          0 HIT:          0 MISS:          0
cpu0_L1D PREFETCH     ACCESS:     995963 HIT:     834094 MISS:     161869
cpu0_L1D WRITE        ACCESS:    2017401 HIT:    1814051 MISS:     203350
cpu0_L1D TRANSLATION  ACCESS:       1543 HIT:         29 MISS:       1514
cpu0_L1D PREFETCH REQUESTED:    7277050 ISSUED:     995963 USEFUL:      14412 USELESS:     116001
cpu0_L1D AVERAGE MISS LATENCY: 35.44 cycles
cpu0_L1I TOTAL        ACCESS:    4132641 HIT:    3045350 MISS:    1087291
cpu0_L1I LOAD         ACCESS:    4132641 HIT:    3045350 MISS:    1087291
cpu0_L1I RFO          ACCESS:          0 HIT:          0 MISS:          0
cpu0_L1I PREFETCH     ACCESS:          0 HIT:          0 MISS:          0
cpu0_L1I WRITE        ACCESS:          0 HIT:          0 MISS:          0
cpu0_L1I TRANSLATION  ACCESS:          0 HIT:          0 MISS:          0
cpu0_L1I PREFETCH REQUESTED:          0 ISSUED:          0 USEFUL:          0 USELESS:          0
cpu0_L1I AVERAGE MISS LATENCY: 6.526 cycles
cpu0_L2C TOTAL        ACCESS:    3146227 HIT:    2920618 MISS:     225609
cpu0_L2C LOAD         ACCESS:    2471543 HIT:    2369444 MISS:     102099
cpu0_L2C RFO          ACCESS:     168277 HIT:     148236 MISS:      20041
cpu0_L2C PREFETCH     ACCESS:     312191 HIT:     210263 MISS:     101928
cpu0_L2C WRITE        ACCESS:     192702 HIT:     192664 MISS:         38
cpu0_L2C TRANSLATION  ACCESS:       1514 HIT:         11 MISS:       1503
cpu0_L2C PREFETCH REQUESTED:     218891 ISSUED:     181760 USEFUL:      47334 USELESS:         54
cpu0_L2C AVERAGE MISS LATENCY: 281.8 cycles
cpu0_STLB TOTAL        ACCESS:     961796 HIT:     960778 MISS:       1018
cpu0_STLB LOAD         ACCESS:     961796 HIT:     960778 MISS:       1018
cpu0_STLB RFO          ACCESS:          0 HIT:          0 MISS:          0
cpu0_STLB PREFETCH     ACCESS:          0 HIT:          0 MISS:          0
cpu0_STLB WRITE        ACCESS:          0 HIT:          0 MISS:          0
cpu0_STLB TRANSLATION  ACCESS:          0 HIT:          0 MISS:          0
cpu0_STLB PREFETCH REQUESTED:          0 ISSUED:          0 USEFUL:          0 USELESS:          0
cpu0_STLB AVERAGE MISS LATENCY: 822.8 cycles

DRAM Statistics

Channel 0 RQ ROW_BUFFER_HIT:      33367
  ROW_BUFFER_MISS:      41723
 AVG DBUS CONGESTED CYCLE: 3.875
WQ ROW_BUFFER_HIT: Channel 0 
  ROW_BUFFER_MISS:       1363
  FULL:      16852
