WARNING: physical memory size is smaller than virtual memory size.

*** ChampSim Multicore Out-of-Order Simulator ***
Warmup Instructions: 25000000
Simulation Instructions: 25000000
Number of CPUs: 1
Page size: 4096

Off-chip DRAM Size: 4 GiB Channels: 1 Width: 64-bit Data Race: 800 MT/s
Heartbeat CPU 0 instructions: 10000001 cycles: 2957124 heartbeat IPC: 3.382 cumulative IPC: 3.382 (Simulation time: 00 hr 00 min 45 sec)
Heartbeat CPU 0 instructions: 20000003 cycles: 5912754 heartbeat IPC: 3.383 cumulative IPC: 3.383 (Simulation time: 00 hr 01 min 30 sec)
Warmup finished CPU 0 instructions: 25000003 cycles: 7390631 cumulative IPC: 3.383 (Simulation time: 00 hr 01 min 53 sec)
Warmup complete CPU 0 instructions: 25000003 cycles: 7390631 cumulative IPC: 3.383 (Simulation time: 00 hr 01 min 53 sec)
Heartbeat CPU 0 instructions: 30000001 cycles: 42599287 heartbeat IPC: 0.2726 cumulative IPC: 0.142 (Simulation time: 00 hr 06 min 40 sec)
Heartbeat CPU 0 instructions: 40000002 cycles: 114970279 heartbeat IPC: 0.1382 cumulative IPC: 0.1394 (Simulation time: 00 hr 16 min 32 sec)
Heartbeat CPU 0 instructions: 50000000 cycles: 186854816 heartbeat IPC: 0.1391 cumulative IPC: 0.1393 (Simulation time: 00 hr 21 min 23 sec)
Simulation finished CPU 0 instructions: 25000001 cycles: 179464187 cumulative IPC: 0.1393 (Simulation time: 00 hr 21 min 23 sec)
Simulation complete CPU 0 instructions: 25000001 cycles: 179464187 cumulative IPC: 0.1393 (Simulation time: 00 hr 21 min 23 sec)

ChampSim completed all CPUs

=== Simulation ===
CPU 0 runs ./traces/619.lbm_s-4268B.champsimtrace.xz
Region of Interest Statistics

CPU 0 cumulative IPC: 0.1393 instructions: 25000001 cycles: 179464187
CPU 0 Branch Prediction Accuracy: 95.11% MPKI: 0.871 Average ROB Occupancy at Mispredict: 294.7
Branch type MPKI
BRANCH_DIRECT_JUMP: 0
BRANCH_INDIRECT: 0
BRANCH_CONDITIONAL: 0.871
BRANCH_DIRECT_CALL: 0
BRANCH_INDIRECT_CALL: 0
BRANCH_RETURN: 0

LLC TOTAL        ACCESS:    3427935 HIT:    1830448 MISS:    1597487
LLC LOAD         ACCESS:     206300 HIT:      13536 MISS:     192764
LLC RFO          ACCESS:    1544663 HIT:     656264 MISS:     888399
LLC PREFETCH     ACCESS:     131096 HIT:      12488 MISS:     118608
LLC WRITE        ACCESS:    1545340 HIT:    1147851 MISS:     397489
LLC TRANSLATION  ACCESS:        536 HIT:        309 MISS:        227
LLC PREFETCH REQUESTED:          0 ISSUED:          0 USEFUL:          0 USELESS:          0
LLC AVERAGE MISS LATENCY: 1607 cycles
cpu0_DTLB TOTAL        ACCESS:    5125047 HIT:    5069879 MISS:      55168
cpu0_DTLB LOAD         ACCESS:    5125047 HIT:    5069879 MISS:      55168
cpu0_DTLB RFO          ACCESS:          0 HIT:          0 MISS:          0
cpu0_DTLB PREFETCH     ACCESS:          0 HIT:          0 MISS:          0
cpu0_DTLB WRITE        ACCESS:          0 HIT:          0 MISS:          0
cpu0_DTLB TRANSLATION  ACCESS:          0 HIT:          0 MISS:          0
cpu0_DTLB PREFETCH REQUESTED:          0 ISSUED:          0 USEFUL:          0 USELESS:          0
cpu0_DTLB AVERAGE MISS LATENCY: 130.8 cycles
cpu0_ITLB TOTAL        ACCESS:          0 HIT:          0 MISS:          0
cpu0_ITLB LOAD         ACCESS:          0 HIT:          0 MISS:          0
cpu0_ITLB RFO          ACCESS:          0 HIT:          0 MISS:          0
cpu0_ITLB PREFETCH     ACCESS:          0 HIT:          0 MISS:          0
cpu0_ITLB WRITE        ACCESS:          0 HIT:          0 MISS:          0
cpu0_ITLB TRANSLATION  ACCESS:          0 HIT:          0 MISS:          0
cpu0_ITLB PREFETCH REQUESTED:          0 ISSUED:          0 USEFUL:          0 USELESS:          0
cpu0_ITLB AVERAGE MISS LATENCY: -nan cycles
cpu0_L1D TOTAL        ACCESS:    8012419 HIT:    4911489 MISS:    3100930
cpu0_L1D LOAD         ACCESS:    1714317 HIT:    1157385 MISS:     556932
cpu0_L1D RFO          ACCESS:          0 HIT:          0 MISS:          0
cpu0_L1D PREFETCH     ACCESS:    1717643 HIT:     965694 MISS:     751949
cpu0_L1D WRITE        ACCESS:    4562037 HIT:    2788391 MISS:    1773646
cpu0_L1D TRANSLATION  ACCESS:      18422 HIT:         19 MISS:      18403
cpu0_L1D PREFETCH REQUESTED:   18052495 ISSUED:    1717645 USEFUL:      72085 USELESS:       2628
cpu0_L1D AVERAGE MISS LATENCY: 755.8 cycles
cpu0_L1I TOTAL        ACCESS:          0 HIT:          0 MISS:          0
cpu0_L1I LOAD         ACCESS:          0 HIT:          0 MISS:          0
cpu0_L1I RFO          ACCESS:          0 HIT:          0 MISS:          0
cpu0_L1I PREFETCH     ACCESS:          0 HIT:          0 MISS:          0
cpu0_L1I WRITE        ACCESS:          0 HIT:          0 MISS:          0
cpu0_L1I TRANSLATION  ACCESS:          0 HIT:          0 MISS:          0
cpu0_L1I PREFETCH REQUESTED:          0 ISSUED:          0 USEFUL:          0 USELESS:          0
cpu0_L1I AVERAGE MISS LATENCY: -nan cycles
cpu0_L2C TOTAL        ACCESS:    3727180 HIT:    1841016 MISS:    1886164
cpu0_L2C LOAD         ACCESS:     222707 HIT:      15554 MISS:     207153
cpu0_L2C RFO          ACCESS:    1669759 HIT:     125095 MISS:    1544664
cpu0_L2C PREFETCH     ACCESS:     146548 HIT:      12737 MISS:     133811
cpu0_L2C WRITE        ACCESS:    1669763 HIT:    1669763 MISS:          0
cpu0_L2C TRANSLATION  ACCESS:      18403 HIT:      17867 MISS:        536
cpu0_L2C PREFETCH REQUESTED:      71835 ISSUED:      71835 USEFUL:      16627 USELESS:        442
cpu0_L2C AVERAGE MISS LATENCY: 1348 cycles
cpu0_STLB TOTAL        ACCESS:      33920 HIT:      15516 MISS:      18404
cpu0_STLB LOAD         ACCESS:      33920 HIT:      15516 MISS:      18404
cpu0_STLB RFO          ACCESS:          0 HIT:          0 MISS:          0
cpu0_STLB PREFETCH     ACCESS:          0 HIT:          0 MISS:          0
cpu0_STLB WRITE        ACCESS:          0 HIT:          0 MISS:          0
cpu0_STLB TRANSLATION  ACCESS:          0 HIT:          0 MISS:          0
cpu0_STLB PREFETCH REQUESTED:          0 ISSUED:          0 USEFUL:          0 USELESS:          0
cpu0_STLB AVERAGE MISS LATENCY: 471.6 cycles

DRAM Statistics

Channel 0 RQ ROW_BUFFER_HIT:      95173
  ROW_BUFFER_MISS:    1090745
 AVG DBUS CONGESTED CYCLE: 3.988
WQ ROW_BUFFER_HIT: Channel 0 
  ROW_BUFFER_MISS:       8285
  FULL:     882533
