WARNING: physical memory size is smaller than virtual memory size.

*** ChampSim Multicore Out-of-Order Simulator ***
Warmup Instructions: 25000000
Simulation Instructions: 25000000
Number of CPUs: 1
Page size: 4096

Off-chip DRAM Size: 4 GiB Channels: 1 Width: 64-bit Data Race: 800 MT/s
Heartbeat CPU 0 instructions: 10000001 cycles: 2956679 heartbeat IPC: 3.382 cumulative IPC: 3.382 (Simulation time: 00 hr 00 min 48 sec)
Heartbeat CPU 0 instructions: 20000001 cycles: 5912621 heartbeat IPC: 3.383 cumulative IPC: 3.383 (Simulation time: 00 hr 01 min 41 sec)
Warmup finished CPU 0 instructions: 25000003 cycles: 7390860 cumulative IPC: 3.383 (Simulation time: 00 hr 02 min 08 sec)
Warmup complete CPU 0 instructions: 25000003 cycles: 7390860 cumulative IPC: 3.383 (Simulation time: 00 hr 02 min 08 sec)
Heartbeat CPU 0 instructions: 30000001 cycles: 48453192 heartbeat IPC: 0.2351 cumulative IPC: 0.1218 (Simulation time: 00 hr 08 min 35 sec)
Heartbeat CPU 0 instructions: 40000002 cycles: 131419974 heartbeat IPC: 0.1205 cumulative IPC: 0.1209 (Simulation time: 00 hr 21 min 07 sec)
Heartbeat CPU 0 instructions: 50000000 cycles: 214180489 heartbeat IPC: 0.1208 cumulative IPC: 0.1209 (Simulation time: 00 hr 26 min 27 sec)
Simulation finished CPU 0 instructions: 25000001 cycles: 206789631 cumulative IPC: 0.1209 (Simulation time: 00 hr 26 min 27 sec)
Simulation complete CPU 0 instructions: 25000001 cycles: 206789631 cumulative IPC: 0.1209 (Simulation time: 00 hr 26 min 27 sec)

ChampSim completed all CPUs

=== Simulation ===
CPU 0 runs ./traces/619.lbm_s-4268B.champsimtrace.xz
Region of Interest Statistics

CPU 0 cumulative IPC: 0.1209 instructions: 25000001 cycles: 206789631
CPU 0 Branch Prediction Accuracy: 95.11% MPKI: 0.871 Average ROB Occupancy at Mispredict: 295
Branch type MPKI
BRANCH_DIRECT_JUMP: 0
BRANCH_INDIRECT: 0
BRANCH_CONDITIONAL: 0.871
BRANCH_DIRECT_CALL: 0
BRANCH_INDIRECT_CALL: 0
BRANCH_RETURN: 0

LLC TOTAL        ACCESS:    3434786 HIT:    1192103 MISS:    2242683
LLC LOAD         ACCESS:     208814 HIT:      15319 MISS:     193495
LLC RFO          ACCESS:    1544834 HIT:     586004 MISS:     958830
LLC PREFETCH     ACCESS:     135116 HIT:      13661 MISS:     121455
LLC WRITE        ACCESS:    1545487 HIT:     577093 MISS:     968394
LLC TRANSLATION  ACCESS:        535 HIT:         26 MISS:        509
LLC PREFETCH REQUESTED:          0 ISSUED:          0 USEFUL:          0 USELESS:          0
LLC AVERAGE MISS LATENCY: 1331 cycles
cpu0_DTLB TOTAL        ACCESS:    5099055 HIT:    5043492 MISS:      55563
cpu0_DTLB LOAD         ACCESS:    5099055 HIT:    5043492 MISS:      55563
cpu0_DTLB RFO          ACCESS:          0 HIT:          0 MISS:          0
cpu0_DTLB PREFETCH     ACCESS:          0 HIT:          0 MISS:          0
cpu0_DTLB WRITE        ACCESS:          0 HIT:          0 MISS:          0
cpu0_DTLB TRANSLATION  ACCESS:          0 HIT:          0 MISS:          0
cpu0_DTLB PREFETCH REQUESTED:          0 ISSUED:          0 USEFUL:          0 USELESS:          0
cpu0_DTLB AVERAGE MISS LATENCY: 160.9 cycles
cpu0_ITLB TOTAL        ACCESS:          0 HIT:          0 MISS:          0
cpu0_ITLB LOAD         ACCESS:          0 HIT:          0 MISS:          0
cpu0_ITLB RFO          ACCESS:          0 HIT:          0 MISS:          0
cpu0_ITLB PREFETCH     ACCESS:          0 HIT:          0 MISS:          0
cpu0_ITLB WRITE        ACCESS:          0 HIT:          0 MISS:          0
cpu0_ITLB TRANSLATION  ACCESS:          0 HIT:          0 MISS:          0
cpu0_ITLB PREFETCH REQUESTED:          0 ISSUED:          0 USEFUL:          0 USELESS:          0
cpu0_ITLB AVERAGE MISS LATENCY: -nan cycles
cpu0_L1D TOTAL        ACCESS:    7948717 HIT:    4895017 MISS:    3053700
cpu0_L1D LOAD         ACCESS:    1685529 HIT:    1143023 MISS:     542506
cpu0_L1D RFO          ACCESS:          0 HIT:          0 MISS:          0
cpu0_L1D PREFETCH     ACCESS:    1686102 HIT:     964523 MISS:     721579
cpu0_L1D WRITE        ACCESS:    4558664 HIT:    2787448 MISS:    1771216
cpu0_L1D TRANSLATION  ACCESS:      18422 HIT:         23 MISS:      18399
cpu0_L1D PREFETCH REQUESTED:   21685828 ISSUED:    1686105 USEFUL:      70554 USELESS:       2618
cpu0_L1D AVERAGE MISS LATENCY: 897.1 cycles
cpu0_L1I TOTAL        ACCESS:          0 HIT:          0 MISS:          0
cpu0_L1I LOAD         ACCESS:          0 HIT:          0 MISS:          0
cpu0_L1I RFO          ACCESS:          0 HIT:          0 MISS:          0
cpu0_L1I PREFETCH     ACCESS:          0 HIT:          0 MISS:          0
cpu0_L1I WRITE        ACCESS:          0 HIT:          0 MISS:          0
cpu0_L1I TRANSLATION  ACCESS:          0 HIT:          0 MISS:          0
cpu0_L1I PREFETCH REQUESTED:          0 ISSUED:          0 USEFUL:          0 USELESS:          0
cpu0_L1I AVERAGE MISS LATENCY: -nan cycles
cpu0_L2C TOTAL        ACCESS:    3731724 HIT:    1839602 MISS:    1892122
cpu0_L2C LOAD         ACCESS:     224255 HIT:      14760 MISS:     209495
cpu0_L2C RFO          ACCESS:    1669766 HIT:     124932 MISS:    1544834
cpu0_L2C PREFETCH     ACCESS:     149528 HIT:      12270 MISS:     137258
cpu0_L2C WRITE        ACCESS:    1669776 HIT:    1669776 MISS:          0
cpu0_L2C TRANSLATION  ACCESS:      18399 HIT:      17864 MISS:        535
cpu0_L2C PREFETCH REQUESTED:      76356 ISSUED:      76356 USEFUL:      15583 USELESS:        323
cpu0_L2C AVERAGE MISS LATENCY: 1560 cycles
cpu0_STLB TOTAL        ACCESS:      33920 HIT:      15516 MISS:      18404
cpu0_STLB LOAD         ACCESS:      33920 HIT:      15516 MISS:      18404
cpu0_STLB RFO          ACCESS:          0 HIT:          0 MISS:          0
cpu0_STLB PREFETCH     ACCESS:          0 HIT:          0 MISS:          0
cpu0_STLB WRITE        ACCESS:          0 HIT:          0 MISS:          0
cpu0_STLB TRANSLATION  ACCESS:          0 HIT:          0 MISS:          0
cpu0_STLB PREFETCH REQUESTED:          0 ISSUED:          0 USEFUL:          0 USELESS:          0
cpu0_STLB AVERAGE MISS LATENCY: 600.1 cycles

DRAM Statistics

Channel 0 RQ ROW_BUFFER_HIT:      98630
  ROW_BUFFER_MISS:    1155679
 AVG DBUS CONGESTED CYCLE: 3.986
WQ ROW_BUFFER_HIT: Channel 0 
  ROW_BUFFER_MISS:      38155
  FULL:     938498
