WARNING: physical memory size is smaller than virtual memory size.

*** ChampSim Multicore Out-of-Order Simulator ***
Warmup Instructions: 25000000
Simulation Instructions: 25000000
Number of CPUs: 1
Page size: 4096

Off-chip DRAM Size: 4 GiB Channels: 1 Width: 64-bit Data Race: 800 MT/s
Heartbeat CPU 0 instructions: 10000000 cycles: 2962983 heartbeat IPC: 3.375 cumulative IPC: 3.375 (Simulation time: 00 hr 00 min 45 sec)
Heartbeat CPU 0 instructions: 20000000 cycles: 5906941 heartbeat IPC: 3.397 cumulative IPC: 3.386 (Simulation time: 00 hr 01 min 29 sec)
Warmup finished CPU 0 instructions: 25000003 cycles: 7392134 cumulative IPC: 3.382 (Simulation time: 00 hr 01 min 52 sec)
Warmup complete CPU 0 instructions: 25000003 cycles: 7392134 cumulative IPC: 3.382 (Simulation time: 00 hr 01 min 52 sec)
Heartbeat CPU 0 instructions: 30000001 cycles: 42776287 heartbeat IPC: 0.2712 cumulative IPC: 0.1413 (Simulation time: 00 hr 06 min 39 sec)
Heartbeat CPU 0 instructions: 40000002 cycles: 113963301 heartbeat IPC: 0.1405 cumulative IPC: 0.1408 (Simulation time: 00 hr 16 min 24 sec)
Heartbeat CPU 0 instructions: 50000001 cycles: 187376731 heartbeat IPC: 0.1362 cumulative IPC: 0.1389 (Simulation time: 00 hr 21 min 33 sec)
Simulation finished CPU 0 instructions: 25000002 cycles: 179984599 cumulative IPC: 0.1389 (Simulation time: 00 hr 21 min 33 sec)
Simulation complete CPU 0 instructions: 25000002 cycles: 179984599 cumulative IPC: 0.1389 (Simulation time: 00 hr 21 min 33 sec)

ChampSim completed all CPUs

=== Simulation ===
CPU 0 runs ./traces/619.lbm_s-2677B.champsimtrace.xz
Region of Interest Statistics

CPU 0 cumulative IPC: 0.1389 instructions: 25000002 cycles: 179984599
CPU 0 Branch Prediction Accuracy: 95.14% MPKI: 0.8683 Average ROB Occupancy at Mispredict: 293.9
Branch type MPKI
BRANCH_DIRECT_JUMP: 0
BRANCH_INDIRECT: 0
BRANCH_CONDITIONAL: 0.868
BRANCH_DIRECT_CALL: 0
BRANCH_INDIRECT_CALL: 0
BRANCH_RETURN: 0

LLC TOTAL        ACCESS:    3445825 HIT:    1840346 MISS:    1605479
LLC LOAD         ACCESS:     206875 HIT:      13899 MISS:     192976
LLC RFO          ACCESS:    1552463 HIT:     660902 MISS:     891561
LLC PREFETCH     ACCESS:     132231 HIT:      12864 MISS:     119367
LLC WRITE        ACCESS:    1553712 HIT:    1152364 MISS:     401348
LLC TRANSLATION  ACCESS:        544 HIT:        317 MISS:        227
LLC PREFETCH REQUESTED:          0 ISSUED:          0 USEFUL:          0 USELESS:          0
LLC AVERAGE MISS LATENCY: 1608 cycles
cpu0_DTLB TOTAL        ACCESS:    5130396 HIT:    5074958 MISS:      55438
cpu0_DTLB LOAD         ACCESS:    5130396 HIT:    5074958 MISS:      55438
cpu0_DTLB RFO          ACCESS:          0 HIT:          0 MISS:          0
cpu0_DTLB PREFETCH     ACCESS:          0 HIT:          0 MISS:          0
cpu0_DTLB WRITE        ACCESS:          0 HIT:          0 MISS:          0
cpu0_DTLB TRANSLATION  ACCESS:          0 HIT:          0 MISS:          0
cpu0_DTLB PREFETCH REQUESTED:          0 ISSUED:          0 USEFUL:          0 USELESS:          0
cpu0_DTLB AVERAGE MISS LATENCY: 132.9 cycles
cpu0_ITLB TOTAL        ACCESS:          0 HIT:          0 MISS:          0
cpu0_ITLB LOAD         ACCESS:          0 HIT:          0 MISS:          0
cpu0_ITLB RFO          ACCESS:          0 HIT:          0 MISS:          0
cpu0_ITLB PREFETCH     ACCESS:          0 HIT:          0 MISS:          0
cpu0_ITLB WRITE        ACCESS:          0 HIT:          0 MISS:          0
cpu0_ITLB TRANSLATION  ACCESS:          0 HIT:          0 MISS:          0
cpu0_ITLB PREFETCH REQUESTED:          0 ISSUED:          0 USEFUL:          0 USELESS:          0
cpu0_ITLB AVERAGE MISS LATENCY: -nan cycles
cpu0_L1D TOTAL        ACCESS:    8019449 HIT:    4905583 MISS:    3113866
cpu0_L1D LOAD         ACCESS:    1716788 HIT:    1153680 MISS:     563108
cpu0_L1D RFO          ACCESS:          0 HIT:          0 MISS:          0
cpu0_L1D PREFETCH     ACCESS:    1717222 HIT:     963148 MISS:     754074
cpu0_L1D WRITE        ACCESS:    4566945 HIT:    2788735 MISS:    1778210
cpu0_L1D TRANSLATION  ACCESS:      18494 HIT:         20 MISS:      18474
cpu0_L1D PREFETCH REQUESTED:   18168838 ISSUED:    1717224 USEFUL:      72200 USELESS:       2689
cpu0_L1D AVERAGE MISS LATENCY: 756.6 cycles
cpu0_L1I TOTAL        ACCESS:          0 HIT:          0 MISS:          0
cpu0_L1I LOAD         ACCESS:          0 HIT:          0 MISS:          0
cpu0_L1I RFO          ACCESS:          0 HIT:          0 MISS:          0
cpu0_L1I PREFETCH     ACCESS:          0 HIT:          0 MISS:          0
cpu0_L1I WRITE        ACCESS:          0 HIT:          0 MISS:          0
cpu0_L1I TRANSLATION  ACCESS:          0 HIT:          0 MISS:          0
cpu0_L1I PREFETCH REQUESTED:          0 ISSUED:          0 USEFUL:          0 USELESS:          0
cpu0_L1I AVERAGE MISS LATENCY: -nan cycles
cpu0_L2C TOTAL        ACCESS:    3740890 HIT:    1845190 MISS:    1895700
cpu0_L2C LOAD         ACCESS:     223679 HIT:      15983 MISS:     207696
cpu0_L2C RFO          ACCESS:    1675299 HIT:     122837 MISS:    1552462
cpu0_L2C PREFETCH     ACCESS:     148130 HIT:      13132 MISS:     134998
cpu0_L2C WRITE        ACCESS:    1675308 HIT:    1675308 MISS:          0
cpu0_L2C TRANSLATION  ACCESS:      18474 HIT:      17930 MISS:        544
cpu0_L2C PREFETCH REQUESTED:      73239 ISSUED:      73239 USEFUL:      17136 USELESS:        462
cpu0_L2C AVERAGE MISS LATENCY: 1348 cycles
cpu0_STLB TOTAL        ACCESS:      34048 HIT:      15572 MISS:      18476
cpu0_STLB LOAD         ACCESS:      34048 HIT:      15572 MISS:      18476
cpu0_STLB RFO          ACCESS:          0 HIT:          0 MISS:          0
cpu0_STLB PREFETCH     ACCESS:          0 HIT:          0 MISS:          0
cpu0_STLB WRITE        ACCESS:          0 HIT:          0 MISS:          0
cpu0_STLB TRANSLATION  ACCESS:          0 HIT:          0 MISS:          0
cpu0_STLB PREFETCH REQUESTED:          0 ISSUED:          0 USEFUL:          0 USELESS:          0
cpu0_STLB AVERAGE MISS LATENCY: 478.6 cycles

DRAM Statistics

Channel 0 RQ ROW_BUFFER_HIT:      94433
  ROW_BUFFER_MISS:    1095798
 AVG DBUS CONGESTED CYCLE: 3.988
WQ ROW_BUFFER_HIT: Channel 0 
  ROW_BUFFER_MISS:       8488
  FULL:     883578
