WARNING: physical memory size is smaller than virtual memory size.

*** ChampSim Multicore Out-of-Order Simulator ***
Warmup Instructions: 25000000
Simulation Instructions: 25000000
Number of CPUs: 1
Page size: 4096

Off-chip DRAM Size: 4 GiB Channels: 1 Width: 64-bit Data Race: 800 MT/s
Heartbeat CPU 0 instructions: 10000003 cycles: 2500085 heartbeat IPC: 4 cumulative IPC: 4 (Simulation time: 00 hr 00 min 36 sec)
Heartbeat CPU 0 instructions: 20000002 cycles: 5008076 heartbeat IPC: 3.987 cumulative IPC: 3.994 (Simulation time: 00 hr 01 min 14 sec)
Warmup finished CPU 0 instructions: 25000002 cycles: 6258077 cumulative IPC: 3.995 (Simulation time: 00 hr 01 min 34 sec)
Warmup complete CPU 0 instructions: 25000002 cycles: 6258077 cumulative IPC: 3.995 (Simulation time: 00 hr 01 min 34 sec)
Heartbeat CPU 0 instructions: 30000002 cycles: 22332135 heartbeat IPC: 0.5772 cumulative IPC: 0.3111 (Simulation time: 00 hr 03 min 52 sec)
Heartbeat CPU 0 instructions: 40000000 cycles: 57051688 heartbeat IPC: 0.288 cumulative IPC: 0.2953 (Simulation time: 00 hr 08 min 54 sec)
Heartbeat CPU 0 instructions: 50000002 cycles: 92617502 heartbeat IPC: 0.2812 cumulative IPC: 0.2895 (Simulation time: 00 hr 14 min 07 sec)
Simulation finished CPU 0 instructions: 25000000 cycles: 86359426 cumulative IPC: 0.2895 (Simulation time: 00 hr 14 min 07 sec)
Simulation complete CPU 0 instructions: 25000000 cycles: 86359426 cumulative IPC: 0.2895 (Simulation time: 00 hr 14 min 07 sec)

ChampSim completed all CPUs

=== Simulation ===
CPU 0 runs ./traces/619.lbm_s-3766B.champsimtrace.xz
Region of Interest Statistics

CPU 0 cumulative IPC: 0.2895 instructions: 25000000 cycles: 86359426
CPU 0 Branch Prediction Accuracy: 99.7% MPKI: 0.03212 Average ROB Occupancy at Mispredict: 259.3
Branch type MPKI
BRANCH_DIRECT_JUMP: 0
BRANCH_INDIRECT: 0
BRANCH_CONDITIONAL: 0.0321
BRANCH_DIRECT_CALL: 0
BRANCH_INDIRECT_CALL: 0
BRANCH_RETURN: 0

LLC TOTAL        ACCESS:    1385845 HIT:     590459 MISS:     795386
LLC LOAD         ACCESS:      62883 HIT:        330 MISS:      62553
LLC RFO          ACCESS:     623005 HIT:     196767 MISS:     426238
LLC PREFETCH     ACCESS:      75302 HIT:        488 MISS:      74814
LLC WRITE        ACCESS:     624216 HIT:     392577 MISS:     231639
LLC TRANSLATION  ACCESS:        439 HIT:        297 MISS:        142
LLC PREFETCH REQUESTED:          0 ISSUED:          0 USEFUL:          0 USELESS:          0
LLC AVERAGE MISS LATENCY: 1398 cycles
cpu0_DTLB TOTAL        ACCESS:    4251094 HIT:    4227788 MISS:      23306
cpu0_DTLB LOAD         ACCESS:    4251094 HIT:    4227788 MISS:      23306
cpu0_DTLB RFO          ACCESS:          0 HIT:          0 MISS:          0
cpu0_DTLB PREFETCH     ACCESS:          0 HIT:          0 MISS:          0
cpu0_DTLB WRITE        ACCESS:          0 HIT:          0 MISS:          0
cpu0_DTLB TRANSLATION  ACCESS:          0 HIT:          0 MISS:          0
cpu0_DTLB PREFETCH REQUESTED:          0 ISSUED:          0 USEFUL:          0 USELESS:          0
cpu0_DTLB AVERAGE MISS LATENCY: 99.09 cycles
cpu0_ITLB TOTAL        ACCESS:          0 HIT:          0 MISS:          0
cpu0_ITLB LOAD         ACCESS:          0 HIT:          0 MISS:          0
cpu0_ITLB RFO          ACCESS:          0 HIT:          0 MISS:          0
cpu0_ITLB PREFETCH     ACCESS:          0 HIT:          0 MISS:          0
cpu0_ITLB WRITE        ACCESS:          0 HIT:          0 MISS:          0
cpu0_ITLB TRANSLATION  ACCESS:          0 HIT:          0 MISS:          0
cpu0_ITLB PREFETCH REQUESTED:          0 ISSUED:          0 USEFUL:          0 USELESS:          0
cpu0_ITLB AVERAGE MISS LATENCY: -nan cycles
cpu0_L1D TOTAL        ACCESS:    7126026 HIT:    5358308 MISS:    1767718
cpu0_L1D LOAD         ACCESS:    1695415 HIT:    1356335 MISS:     339080
cpu0_L1D RFO          ACCESS:          0 HIT:          0 MISS:          0
cpu0_L1D PREFETCH     ACCESS:    1700270 HIT:    1088223 MISS:     612047
cpu0_L1D WRITE        ACCESS:    3721865 HIT:    2913747 MISS:     808118
cpu0_L1D TRANSLATION  ACCESS:       8476 HIT:          3 MISS:       8473
cpu0_L1D PREFETCH REQUESTED:    2418192 ISSUED:    1700272 USEFUL:      52575 USELESS:       1271
cpu0_L1D AVERAGE MISS LATENCY: 579 cycles
cpu0_L1I TOTAL        ACCESS:          0 HIT:          0 MISS:          0
cpu0_L1I LOAD         ACCESS:          0 HIT:          0 MISS:          0
cpu0_L1I RFO          ACCESS:          0 HIT:          0 MISS:          0
cpu0_L1I PREFETCH     ACCESS:          0 HIT:          0 MISS:          0
cpu0_L1I WRITE        ACCESS:          0 HIT:          0 MISS:          0
cpu0_L1I TRANSLATION  ACCESS:          0 HIT:          0 MISS:          0
cpu0_L1I PREFETCH REQUESTED:          0 ISSUED:          0 USEFUL:          0 USELESS:          0
cpu0_L1I AVERAGE MISS LATENCY: -nan cycles
cpu0_L2C TOTAL        ACCESS:    1737627 HIT:     975484 MISS:     762143
cpu0_L2C LOAD         ACCESS:      82863 HIT:      19946 MISS:      62917
cpu0_L2C RFO          ACCESS:     768695 HIT:     145689 MISS:     623006
cpu0_L2C PREFETCH     ACCESS:     108913 HIT:      33132 MISS:      75781
cpu0_L2C WRITE        ACCESS:     768683 HIT:     768683 MISS:          0
cpu0_L2C TRANSLATION  ACCESS:       8473 HIT:       8034 MISS:        439
cpu0_L2C PREFETCH REQUESTED:      55068 ISSUED:      55068 USEFUL:      20224 USELESS:        168
cpu0_L2C AVERAGE MISS LATENCY: 1476 cycles
cpu0_STLB TOTAL        ACCESS:      15602 HIT:       7134 MISS:       8468
cpu0_STLB LOAD         ACCESS:      15602 HIT:       7134 MISS:       8468
cpu0_STLB RFO          ACCESS:          0 HIT:          0 MISS:          0
cpu0_STLB PREFETCH     ACCESS:          0 HIT:          0 MISS:          0
cpu0_STLB WRITE        ACCESS:          0 HIT:          0 MISS:          0
cpu0_STLB TRANSLATION  ACCESS:          0 HIT:          0 MISS:          0
cpu0_STLB PREFETCH REQUESTED:          0 ISSUED:          0 USEFUL:          0 USELESS:          0
cpu0_STLB AVERAGE MISS LATENCY: 290.2 cycles

DRAM Statistics

Channel 0 RQ ROW_BUFFER_HIT:      48242
  ROW_BUFFER_MISS:     512861
 AVG DBUS CONGESTED CYCLE: 3.988
WQ ROW_BUFFER_HIT: Channel 0 
  ROW_BUFFER_MISS:       4974
  FULL:     420171
