WARNING: physical memory size is smaller than virtual memory size.

*** ChampSim Multicore Out-of-Order Simulator ***
Warmup Instructions: 25000000
Simulation Instructions: 25000000
Number of CPUs: 1
Page size: 4096

Off-chip DRAM Size: 4 GiB Channels: 1 Width: 64-bit Data Race: 800 MT/s
Heartbeat CPU 0 instructions: 10000003 cycles: 2500085 heartbeat IPC: 4 cumulative IPC: 4 (Simulation time: 00 hr 00 min 39 sec)
Heartbeat CPU 0 instructions: 20000002 cycles: 5008083 heartbeat IPC: 3.987 cumulative IPC: 3.994 (Simulation time: 00 hr 01 min 22 sec)
Warmup finished CPU 0 instructions: 25000002 cycles: 6258084 cumulative IPC: 3.995 (Simulation time: 00 hr 01 min 46 sec)
Warmup complete CPU 0 instructions: 25000002 cycles: 6258084 cumulative IPC: 3.995 (Simulation time: 00 hr 01 min 46 sec)
Heartbeat CPU 0 instructions: 30000002 cycles: 21586550 heartbeat IPC: 0.6032 cumulative IPC: 0.3262 (Simulation time: 00 hr 04 min 22 sec)
Heartbeat CPU 0 instructions: 40000000 cycles: 64519508 heartbeat IPC: 0.2329 cumulative IPC: 0.2575 (Simulation time: 00 hr 11 min 29 sec)
Heartbeat CPU 0 instructions: 50000002 cycles: 101676327 heartbeat IPC: 0.2691 cumulative IPC: 0.262 (Simulation time: 00 hr 17 min 32 sec)
Simulation finished CPU 0 instructions: 25000000 cycles: 95418244 cumulative IPC: 0.262 (Simulation time: 00 hr 17 min 32 sec)
Simulation complete CPU 0 instructions: 25000000 cycles: 95418244 cumulative IPC: 0.262 (Simulation time: 00 hr 17 min 32 sec)

ChampSim completed all CPUs

=== Simulation ===
CPU 0 runs ./traces/619.lbm_s-3766B.champsimtrace.xz
Region of Interest Statistics

CPU 0 cumulative IPC: 0.262 instructions: 25000000 cycles: 95418244
CPU 0 Branch Prediction Accuracy: 99.7% MPKI: 0.03212 Average ROB Occupancy at Mispredict: 259.6
Branch type MPKI
BRANCH_DIRECT_JUMP: 0
BRANCH_INDIRECT: 0
BRANCH_CONDITIONAL: 0.0321
BRANCH_DIRECT_CALL: 0
BRANCH_INDIRECT_CALL: 0
BRANCH_RETURN: 0

LLC TOTAL        ACCESS:    1386681 HIT:     518042 MISS:     868639
LLC LOAD         ACCESS:      63212 HIT:        633 MISS:      62579
LLC RFO          ACCESS:     623048 HIT:     148833 MISS:     474215
LLC PREFETCH     ACCESS:      75734 HIT:        956 MISS:      74778
LLC WRITE        ACCESS:     624247 HIT:     367453 MISS:     256794
LLC TRANSLATION  ACCESS:        440 HIT:        167 MISS:        273
LLC PREFETCH REQUESTED:          0 ISSUED:          0 USEFUL:          0 USELESS:          0
LLC AVERAGE MISS LATENCY: 1469 cycles
cpu0_DTLB TOTAL        ACCESS:    4195076 HIT:    4171867 MISS:      23209
cpu0_DTLB LOAD         ACCESS:    4195076 HIT:    4171867 MISS:      23209
cpu0_DTLB RFO          ACCESS:          0 HIT:          0 MISS:          0
cpu0_DTLB PREFETCH     ACCESS:          0 HIT:          0 MISS:          0
cpu0_DTLB WRITE        ACCESS:          0 HIT:          0 MISS:          0
cpu0_DTLB TRANSLATION  ACCESS:          0 HIT:          0 MISS:          0
cpu0_DTLB PREFETCH REQUESTED:          0 ISSUED:          0 USEFUL:          0 USELESS:          0
cpu0_DTLB AVERAGE MISS LATENCY: 141.9 cycles
cpu0_ITLB TOTAL        ACCESS:          0 HIT:          0 MISS:          0
cpu0_ITLB LOAD         ACCESS:          0 HIT:          0 MISS:          0
cpu0_ITLB RFO          ACCESS:          0 HIT:          0 MISS:          0
cpu0_ITLB PREFETCH     ACCESS:          0 HIT:          0 MISS:          0
cpu0_ITLB WRITE        ACCESS:          0 HIT:          0 MISS:          0
cpu0_ITLB TRANSLATION  ACCESS:          0 HIT:          0 MISS:          0
cpu0_ITLB PREFETCH REQUESTED:          0 ISSUED:          0 USEFUL:          0 USELESS:          0
cpu0_ITLB AVERAGE MISS LATENCY: -nan cycles
cpu0_L1D TOTAL        ACCESS:    7033294 HIT:    5272093 MISS:    1761201
cpu0_L1D LOAD         ACCESS:    1651999 HIT:    1315800 MISS:     336199
cpu0_L1D RFO          ACCESS:          0 HIT:          0 MISS:          0
cpu0_L1D PREFETCH     ACCESS:    1656432 HIT:    1053299 MISS:     603133
cpu0_L1D WRITE        ACCESS:    3716387 HIT:    2902992 MISS:     813395
cpu0_L1D TRANSLATION  ACCESS:       8476 HIT:          2 MISS:       8474
cpu0_L1D PREFETCH REQUESTED:    2724558 ISSUED:    1656434 USEFUL:      52514 USELESS:       1267
cpu0_L1D AVERAGE MISS LATENCY: 665.3 cycles
cpu0_L1I TOTAL        ACCESS:          0 HIT:          0 MISS:          0
cpu0_L1I LOAD         ACCESS:          0 HIT:          0 MISS:          0
cpu0_L1I RFO          ACCESS:          0 HIT:          0 MISS:          0
cpu0_L1I PREFETCH     ACCESS:          0 HIT:          0 MISS:          0
cpu0_L1I WRITE        ACCESS:          0 HIT:          0 MISS:          0
cpu0_L1I TRANSLATION  ACCESS:          0 HIT:          0 MISS:          0
cpu0_L1I PREFETCH REQUESTED:          0 ISSUED:          0 USEFUL:          0 USELESS:          0
cpu0_L1I AVERAGE MISS LATENCY: -nan cycles
cpu0_L2C TOTAL        ACCESS:    1737680 HIT:     974821 MISS:     762859
cpu0_L2C LOAD         ACCESS:      82924 HIT:      19687 MISS:      63237
cpu0_L2C RFO          ACCESS:     768715 HIT:     145665 MISS:     623050
cpu0_L2C PREFETCH     ACCESS:     108862 HIT:      32730 MISS:      76132
cpu0_L2C WRITE        ACCESS:     768705 HIT:     768705 MISS:          0
cpu0_L2C TRANSLATION  ACCESS:       8474 HIT:       8034 MISS:        440
cpu0_L2C PREFETCH REQUESTED:      55082 ISSUED:      55082 USEFUL:      19950 USELESS:        159
cpu0_L2C AVERAGE MISS LATENCY: 1689 cycles
cpu0_STLB TOTAL        ACCESS:      15602 HIT:       7134 MISS:       8468
cpu0_STLB LOAD         ACCESS:      15602 HIT:       7134 MISS:       8468
cpu0_STLB RFO          ACCESS:          0 HIT:          0 MISS:          0
cpu0_STLB PREFETCH     ACCESS:          0 HIT:          0 MISS:          0
cpu0_STLB WRITE        ACCESS:          0 HIT:          0 MISS:          0
cpu0_STLB TRANSLATION  ACCESS:          0 HIT:          0 MISS:          0
cpu0_STLB PREFETCH REQUESTED:          0 ISSUED:          0 USEFUL:          0 USELESS:          0
cpu0_STLB AVERAGE MISS LATENCY: 435.4 cycles

DRAM Statistics

Channel 0 RQ ROW_BUFFER_HIT:      44356
  ROW_BUFFER_MISS:     558130
 AVG DBUS CONGESTED CYCLE: 3.989
WQ ROW_BUFFER_HIT: Channel 0 
  ROW_BUFFER_MISS:      17256
  FULL:     461616
