WARNING: physical memory size is smaller than virtual memory size.

*** ChampSim Multicore Out-of-Order Simulator ***
Warmup Instructions: 25000000
Simulation Instructions: 25000000
Number of CPUs: 1
Page size: 4096

Off-chip DRAM Size: 4 GiB Channels: 1 Width: 64-bit Data Race: 800 MT/s
Heartbeat CPU 0 instructions: 10000000 cycles: 2502354 heartbeat IPC: 3.996 cumulative IPC: 3.996 (Simulation time: 00 hr 00 min 50 sec)
Heartbeat CPU 0 instructions: 20000001 cycles: 5004367 heartbeat IPC: 3.997 cumulative IPC: 3.997 (Simulation time: 00 hr 01 min 44 sec)
Warmup finished CPU 0 instructions: 25000001 cycles: 6255500 cumulative IPC: 3.996 (Simulation time: 00 hr 02 min 10 sec)
Warmup complete CPU 0 instructions: 25000001 cycles: 6255500 cumulative IPC: 3.996 (Simulation time: 00 hr 02 min 10 sec)
Heartbeat CPU 0 instructions: 30000002 cycles: 19108918 heartbeat IPC: 0.709 cumulative IPC: 0.389 (Simulation time: 00 hr 04 min 04 sec)
Heartbeat CPU 0 instructions: 40000000 cycles: 44537706 heartbeat IPC: 0.3933 cumulative IPC: 0.3918 (Simulation time: 00 hr 07 min 50 sec)
Heartbeat CPU 0 instructions: 50000001 cycles: 69663177 heartbeat IPC: 0.398 cumulative IPC: 0.3943 (Simulation time: 00 hr 11 min 33 sec)
Simulation finished CPU 0 instructions: 25000000 cycles: 63407678 cumulative IPC: 0.3943 (Simulation time: 00 hr 11 min 33 sec)
Simulation complete CPU 0 instructions: 25000000 cycles: 63407678 cumulative IPC: 0.3943 (Simulation time: 00 hr 11 min 33 sec)

ChampSim completed all CPUs

=== Simulation ===
CPU 0 runs ./traces/620.omnetpp_s-874B.champsimtrace.xz
Region of Interest Statistics

CPU 0 cumulative IPC: 0.3943 instructions: 25000000 cycles: 63407678
CPU 0 Branch Prediction Accuracy: 92.93% MPKI: 14.75 Average ROB Occupancy at Mispredict: 57.58
Branch type MPKI
BRANCH_DIRECT_JUMP: 0.944
BRANCH_INDIRECT: 0.117
BRANCH_CONDITIONAL: 12.6
BRANCH_DIRECT_CALL: 0.00312
BRANCH_INDIRECT_CALL: 0.731
BRANCH_RETURN: 0.39

LLC TOTAL        ACCESS:     882675 HIT:     415361 MISS:     467314
LLC LOAD         ACCESS:     287742 HIT:     102304 MISS:     185438
LLC RFO          ACCESS:      34325 HIT:      14183 MISS:      20142
LLC PREFETCH     ACCESS:     255111 HIT:      89767 MISS:     165344
LLC WRITE        ACCESS:     199418 HIT:     198180 MISS:       1238
LLC TRANSLATION  ACCESS:     106079 HIT:      10927 MISS:      95152
LLC PREFETCH REQUESTED:          0 ISSUED:          0 USEFUL:          0 USELESS:          0
LLC AVERAGE MISS LATENCY: 381.5 cycles
cpu0_DTLB TOTAL        ACCESS:    7862119 HIT:    7255720 MISS:     606399
cpu0_DTLB LOAD         ACCESS:    7862119 HIT:    7255720 MISS:     606399
cpu0_DTLB RFO          ACCESS:          0 HIT:          0 MISS:          0
cpu0_DTLB PREFETCH     ACCESS:          0 HIT:          0 MISS:          0
cpu0_DTLB WRITE        ACCESS:          0 HIT:          0 MISS:          0
cpu0_DTLB TRANSLATION  ACCESS:          0 HIT:          0 MISS:          0
cpu0_DTLB PREFETCH REQUESTED:          0 ISSUED:          0 USEFUL:          0 USELESS:          0
cpu0_DTLB AVERAGE MISS LATENCY: 75.46 cycles
cpu0_ITLB TOTAL        ACCESS:    2031986 HIT:    1974929 MISS:      57057
cpu0_ITLB LOAD         ACCESS:    2031986 HIT:    1974929 MISS:      57057
cpu0_ITLB RFO          ACCESS:          0 HIT:          0 MISS:          0
cpu0_ITLB PREFETCH     ACCESS:          0 HIT:          0 MISS:          0
cpu0_ITLB WRITE        ACCESS:          0 HIT:          0 MISS:          0
cpu0_ITLB TRANSLATION  ACCESS:          0 HIT:          0 MISS:          0
cpu0_ITLB PREFETCH REQUESTED:          0 ISSUED:          0 USEFUL:          0 USELESS:          0
cpu0_ITLB AVERAGE MISS LATENCY: 5.52 cycles
cpu0_L1D TOTAL        ACCESS:   14704668 HIT:   13090776 MISS:    1613892
cpu0_L1D LOAD         ACCESS:    5562991 HIT:    4881005 MISS:     681986
cpu0_L1D RFO          ACCESS:          0 HIT:          0 MISS:          0
cpu0_L1D PREFETCH     ACCESS:    4383411 HIT:    3736068 MISS:     647343
cpu0_L1D WRITE        ACCESS:    4604932 HIT:    4462396 MISS:     142536
cpu0_L1D TRANSLATION  ACCESS:     153334 HIT:      11307 MISS:     142027
cpu0_L1D PREFETCH REQUESTED:    5601200 ISSUED:    4383406 USEFUL:      93953 USELESS:     285963
cpu0_L1D AVERAGE MISS LATENCY: 120.4 cycles
cpu0_L1I TOTAL        ACCESS:    2223389 HIT:    2210657 MISS:      12732
cpu0_L1I LOAD         ACCESS:    2223389 HIT:    2210657 MISS:      12732
cpu0_L1I RFO          ACCESS:          0 HIT:          0 MISS:          0
cpu0_L1I PREFETCH     ACCESS:          0 HIT:          0 MISS:          0
cpu0_L1I WRITE        ACCESS:          0 HIT:          0 MISS:          0
cpu0_L1I TRANSLATION  ACCESS:          0 HIT:          0 MISS:          0
cpu0_L1I PREFETCH REQUESTED:          0 ISSUED:          0 USEFUL:          0 USELESS:          0
cpu0_L1I AVERAGE MISS LATENCY: 25.27 cycles
cpu0_L2C TOTAL        ACCESS:    1285887 HIT:     601129 MISS:     684758
cpu0_L2C LOAD         ACCESS:     448046 HIT:     160293 MISS:     287753
cpu0_L2C RFO          ACCESS:      41944 HIT:       7619 MISS:      34325
cpu0_L2C PREFETCH     ACCESS:     384851 HIT:     129718 MISS:     255133
cpu0_L2C WRITE        ACCESS:     269265 HIT:     267797 MISS:       1468
cpu0_L2C TRANSLATION  ACCESS:     141781 HIT:      35702 MISS:     106079
cpu0_L2C PREFETCH REQUESTED:       4880 ISSUED:       4880 USEFUL:        948 USELESS:       3335
cpu0_L2C AVERAGE MISS LATENCY: 281 cycles
cpu0_STLB TOTAL        ACCESS:     508512 HIT:     398240 MISS:     110272
cpu0_STLB LOAD         ACCESS:     508512 HIT:     398240 MISS:     110272
cpu0_STLB RFO          ACCESS:          0 HIT:          0 MISS:          0
cpu0_STLB PREFETCH     ACCESS:          0 HIT:          0 MISS:          0
cpu0_STLB WRITE        ACCESS:          0 HIT:          0 MISS:          0
cpu0_STLB TRANSLATION  ACCESS:          0 HIT:          0 MISS:          0
cpu0_STLB PREFETCH REQUESTED:          0 ISSUED:          0 USEFUL:          0 USELESS:          0
cpu0_STLB AVERAGE MISS LATENCY: 391.6 cycles

DRAM Statistics

Channel 0 RQ ROW_BUFFER_HIT:      43974
  ROW_BUFFER_MISS:     421946
 AVG DBUS CONGESTED CYCLE: 3.947
WQ ROW_BUFFER_HIT: Channel 0 
  ROW_BUFFER_MISS:       2875
  FULL:     122895
