WARNING: physical memory size is smaller than virtual memory size.

*** ChampSim Multicore Out-of-Order Simulator ***
Warmup Instructions: 25000000
Simulation Instructions: 25000000
Number of CPUs: 1
Page size: 4096

Off-chip DRAM Size: 4 GiB Channels: 1 Width: 64-bit Data Race: 800 MT/s
Heartbeat CPU 0 instructions: 10000002 cycles: 2503315 heartbeat IPC: 3.995 cumulative IPC: 3.995 (Simulation time: 00 hr 00 min 43 sec)
Heartbeat CPU 0 instructions: 20000002 cycles: 5007287 heartbeat IPC: 3.994 cumulative IPC: 3.994 (Simulation time: 00 hr 01 min 27 sec)
Warmup finished CPU 0 instructions: 25000003 cycles: 6259737 cumulative IPC: 3.994 (Simulation time: 00 hr 01 min 50 sec)
Warmup complete CPU 0 instructions: 25000003 cycles: 6259737 cumulative IPC: 3.994 (Simulation time: 00 hr 01 min 50 sec)
Heartbeat CPU 0 instructions: 30000003 cycles: 20377680 heartbeat IPC: 0.6506 cumulative IPC: 0.3542 (Simulation time: 00 hr 03 min 30 sec)
Heartbeat CPU 0 instructions: 40000001 cycles: 48670190 heartbeat IPC: 0.3535 cumulative IPC: 0.3537 (Simulation time: 00 hr 07 min 02 sec)
Heartbeat CPU 0 instructions: 50000000 cycles: 77243370 heartbeat IPC: 0.35 cumulative IPC: 0.3522 (Simulation time: 00 hr 10 min 34 sec)
Simulation finished CPU 0 instructions: 25000000 cycles: 70983645 cumulative IPC: 0.3522 (Simulation time: 00 hr 10 min 34 sec)
Simulation complete CPU 0 instructions: 25000000 cycles: 70983645 cumulative IPC: 0.3522 (Simulation time: 00 hr 10 min 34 sec)

ChampSim completed all CPUs

=== Simulation ===
CPU 0 runs ./traces/620.omnetpp_s-141B.champsimtrace.xz
Region of Interest Statistics

CPU 0 cumulative IPC: 0.3522 instructions: 25000000 cycles: 70983645
CPU 0 Branch Prediction Accuracy: 91.43% MPKI: 18.03 Average ROB Occupancy at Mispredict: 51.1
Branch type MPKI
BRANCH_DIRECT_JUMP: 0.836
BRANCH_INDIRECT: 0.351
BRANCH_CONDITIONAL: 15.5
BRANCH_DIRECT_CALL: 0.00252
BRANCH_INDIRECT_CALL: 0.858
BRANCH_RETURN: 0.445

LLC TOTAL        ACCESS:     914900 HIT:     360710 MISS:     554190
LLC LOAD         ACCESS:     297138 HIT:      91299 MISS:     205839
LLC RFO          ACCESS:      30691 HIT:      11529 MISS:      19162
LLC PREFETCH     ACCESS:     266359 HIT:      76310 MISS:     190049
LLC WRITE        ACCESS:     199151 HIT:     171301 MISS:      27850
LLC TRANSLATION  ACCESS:     121561 HIT:      10271 MISS:     111290
LLC PREFETCH REQUESTED:          0 ISSUED:          0 USEFUL:          0 USELESS:          0
LLC AVERAGE MISS LATENCY: 360.2 cycles
cpu0_DTLB TOTAL        ACCESS:    8047451 HIT:    7411086 MISS:     636365
cpu0_DTLB LOAD         ACCESS:    8047451 HIT:    7411086 MISS:     636365
cpu0_DTLB RFO          ACCESS:          0 HIT:          0 MISS:          0
cpu0_DTLB PREFETCH     ACCESS:          0 HIT:          0 MISS:          0
cpu0_DTLB WRITE        ACCESS:          0 HIT:          0 MISS:          0
cpu0_DTLB TRANSLATION  ACCESS:          0 HIT:          0 MISS:          0
cpu0_DTLB PREFETCH REQUESTED:          0 ISSUED:          0 USEFUL:          0 USELESS:          0
cpu0_DTLB AVERAGE MISS LATENCY: 83.93 cycles
cpu0_ITLB TOTAL        ACCESS:    1966068 HIT:    1910081 MISS:      55987
cpu0_ITLB LOAD         ACCESS:    1966068 HIT:    1910081 MISS:      55987
cpu0_ITLB RFO          ACCESS:          0 HIT:          0 MISS:          0
cpu0_ITLB PREFETCH     ACCESS:          0 HIT:          0 MISS:          0
cpu0_ITLB WRITE        ACCESS:          0 HIT:          0 MISS:          0
cpu0_ITLB TRANSLATION  ACCESS:          0 HIT:          0 MISS:          0
cpu0_ITLB PREFETCH REQUESTED:          0 ISSUED:          0 USEFUL:          0 USELESS:          0
cpu0_ITLB AVERAGE MISS LATENCY: 4.635 cycles
cpu0_L1D TOTAL        ACCESS:   15140379 HIT:   13463401 MISS:    1676978
cpu0_L1D LOAD         ACCESS:    5664459 HIT:    4972525 MISS:     691934
cpu0_L1D RFO          ACCESS:          0 HIT:          0 MISS:          0
cpu0_L1D PREFETCH     ACCESS:    4709489 HIT:    4023818 MISS:     685671
cpu0_L1D WRITE        ACCESS:    4591606 HIT:    4453110 MISS:     138496
cpu0_L1D TRANSLATION  ACCESS:     174825 HIT:      13948 MISS:     160877
cpu0_L1D PREFETCH REQUESTED:    5760350 ISSUED:    4709481 USEFUL:      96638 USELESS:     317645
cpu0_L1D AVERAGE MISS LATENCY: 129.3 cycles
cpu0_L1I TOTAL        ACCESS:    2152431 HIT:    2134266 MISS:      18165
cpu0_L1I LOAD         ACCESS:    2152431 HIT:    2134266 MISS:      18165
cpu0_L1I RFO          ACCESS:          0 HIT:          0 MISS:          0
cpu0_L1I PREFETCH     ACCESS:          0 HIT:          0 MISS:          0
cpu0_L1I WRITE        ACCESS:          0 HIT:          0 MISS:          0
cpu0_L1I TRANSLATION  ACCESS:          0 HIT:          0 MISS:          0
cpu0_L1I PREFETCH REQUESTED:          0 ISSUED:          0 USEFUL:          0 USELESS:          0
cpu0_L1I AVERAGE MISS LATENCY: 24.95 cycles
cpu0_L2C TOTAL        ACCESS:    1373709 HIT:     656573 MISS:     717136
cpu0_L2C LOAD         ACCESS:     480454 HIT:     183314 MISS:     297140
cpu0_L2C RFO          ACCESS:      40103 HIT:       9412 MISS:      30691
cpu0_L2C PREFETCH     ACCESS:     418196 HIT:     151822 MISS:     266374
cpu0_L2C WRITE        ACCESS:     274329 HIT:     272959 MISS:       1370
cpu0_L2C TRANSLATION  ACCESS:     160627 HIT:      39066 MISS:     121561
cpu0_L2C PREFETCH REQUESTED:       3853 ISSUED:       3853 USEFUL:        627 USELESS:       2904
cpu0_L2C AVERAGE MISS LATENCY: 299.1 cycles
cpu0_STLB TOTAL        ACCESS:     538356 HIT:     414641 MISS:     123715
cpu0_STLB LOAD         ACCESS:     538356 HIT:     414641 MISS:     123715
cpu0_STLB RFO          ACCESS:          0 HIT:          0 MISS:          0
cpu0_STLB PREFETCH     ACCESS:          0 HIT:          0 MISS:          0
cpu0_STLB WRITE        ACCESS:          0 HIT:          0 MISS:          0
cpu0_STLB TRANSLATION  ACCESS:          0 HIT:          0 MISS:          0
cpu0_STLB PREFETCH REQUESTED:          0 ISSUED:          0 USEFUL:          0 USELESS:          0
cpu0_STLB AVERAGE MISS LATENCY: 409.4 cycles

DRAM Statistics

Channel 0 RQ ROW_BUFFER_HIT:      42212
  ROW_BUFFER_MISS:     484007
 AVG DBUS CONGESTED CYCLE: 3.945
WQ ROW_BUFFER_HIT: Channel 0 
  ROW_BUFFER_MISS:       3215
  FULL:     126757
