WARNING: physical memory size is smaller than virtual memory size.

*** ChampSim Multicore Out-of-Order Simulator ***
Warmup Instructions: 25000000
Simulation Instructions: 25000000
Number of CPUs: 1
Page size: 4096

Off-chip DRAM Size: 4 GiB Channels: 1 Width: 64-bit Data Race: 800 MT/s
Heartbeat CPU 0 instructions: 10000002 cycles: 2503326 heartbeat IPC: 3.995 cumulative IPC: 3.995 (Simulation time: 00 hr 00 min 52 sec)
Heartbeat CPU 0 instructions: 20000002 cycles: 5007312 heartbeat IPC: 3.994 cumulative IPC: 3.994 (Simulation time: 00 hr 01 min 50 sec)
Warmup finished CPU 0 instructions: 25000003 cycles: 6259742 cumulative IPC: 3.994 (Simulation time: 00 hr 02 min 19 sec)
Warmup complete CPU 0 instructions: 25000003 cycles: 6259742 cumulative IPC: 3.994 (Simulation time: 00 hr 02 min 19 sec)
Heartbeat CPU 0 instructions: 30000003 cycles: 19893915 heartbeat IPC: 0.6717 cumulative IPC: 0.3667 (Simulation time: 00 hr 04 min 23 sec)
Heartbeat CPU 0 instructions: 40000001 cycles: 48019264 heartbeat IPC: 0.3556 cumulative IPC: 0.3592 (Simulation time: 00 hr 08 min 11 sec)
Heartbeat CPU 0 instructions: 50000000 cycles: 76503840 heartbeat IPC: 0.3511 cumulative IPC: 0.3559 (Simulation time: 00 hr 11 min 52 sec)
Simulation finished CPU 0 instructions: 25000000 cycles: 70244110 cumulative IPC: 0.3559 (Simulation time: 00 hr 11 min 52 sec)
Simulation complete CPU 0 instructions: 25000000 cycles: 70244110 cumulative IPC: 0.3559 (Simulation time: 00 hr 11 min 52 sec)

ChampSim completed all CPUs

=== Simulation ===
CPU 0 runs ./traces/620.omnetpp_s-141B.champsimtrace.xz
Region of Interest Statistics

CPU 0 cumulative IPC: 0.3559 instructions: 25000000 cycles: 70244110
CPU 0 Branch Prediction Accuracy: 91.43% MPKI: 18.03 Average ROB Occupancy at Mispredict: 50.66
Branch type MPKI
BRANCH_DIRECT_JUMP: 0.836
BRANCH_INDIRECT: 0.351
BRANCH_CONDITIONAL: 15.5
BRANCH_DIRECT_CALL: 0.00252
BRANCH_INDIRECT_CALL: 0.858
BRANCH_RETURN: 0.445

LLC TOTAL        ACCESS:     914251 HIT:     394352 MISS:     519899
LLC LOAD         ACCESS:     296992 HIT:      93846 MISS:     203146
LLC RFO          ACCESS:      30685 HIT:      11616 MISS:      19069
LLC PREFETCH     ACCESS:     266139 HIT:      81706 MISS:     184433
LLC WRITE        ACCESS:     198937 HIT:     195123 MISS:       3814
LLC TRANSLATION  ACCESS:     121498 HIT:      12061 MISS:     109437
LLC PREFETCH REQUESTED:          0 ISSUED:          0 USEFUL:          0 USELESS:          0
LLC AVERAGE MISS LATENCY: 378.4 cycles
cpu0_DTLB TOTAL        ACCESS:    8046337 HIT:    7410410 MISS:     635927
cpu0_DTLB LOAD         ACCESS:    8046337 HIT:    7410410 MISS:     635927
cpu0_DTLB RFO          ACCESS:          0 HIT:          0 MISS:          0
cpu0_DTLB PREFETCH     ACCESS:          0 HIT:          0 MISS:          0
cpu0_DTLB WRITE        ACCESS:          0 HIT:          0 MISS:          0
cpu0_DTLB TRANSLATION  ACCESS:          0 HIT:          0 MISS:          0
cpu0_DTLB PREFETCH REQUESTED:          0 ISSUED:          0 USEFUL:          0 USELESS:          0
cpu0_DTLB AVERAGE MISS LATENCY: 82.68 cycles
cpu0_ITLB TOTAL        ACCESS:    1966076 HIT:    1910093 MISS:      55983
cpu0_ITLB LOAD         ACCESS:    1966076 HIT:    1910093 MISS:      55983
cpu0_ITLB RFO          ACCESS:          0 HIT:          0 MISS:          0
cpu0_ITLB PREFETCH     ACCESS:          0 HIT:          0 MISS:          0
cpu0_ITLB WRITE        ACCESS:          0 HIT:          0 MISS:          0
cpu0_ITLB TRANSLATION  ACCESS:          0 HIT:          0 MISS:          0
cpu0_ITLB PREFETCH REQUESTED:          0 ISSUED:          0 USEFUL:          0 USELESS:          0
cpu0_ITLB AVERAGE MISS LATENCY: 4.576 cycles
cpu0_L1D TOTAL        ACCESS:   15140583 HIT:   13466549 MISS:    1674034
cpu0_L1D LOAD         ACCESS:    5666062 HIT:    4974614 MISS:     691448
cpu0_L1D RFO          ACCESS:          0 HIT:          0 MISS:          0
cpu0_L1D PREFETCH     ACCESS:    4708214 HIT:    4025520 MISS:     682694
cpu0_L1D WRITE        ACCESS:    4591479 HIT:    4452482 MISS:     138997
cpu0_L1D TRANSLATION  ACCESS:     174828 HIT:      13933 MISS:     160895
cpu0_L1D PREFETCH REQUESTED:    5768253 ISSUED:    4708206 USEFUL:      96583 USELESS:     317617
cpu0_L1D AVERAGE MISS LATENCY: 127.7 cycles
cpu0_L1I TOTAL        ACCESS:    2152444 HIT:    2134267 MISS:      18177
cpu0_L1I LOAD         ACCESS:    2152444 HIT:    2134267 MISS:      18177
cpu0_L1I RFO          ACCESS:          0 HIT:          0 MISS:          0
cpu0_L1I PREFETCH     ACCESS:          0 HIT:          0 MISS:          0
cpu0_L1I WRITE        ACCESS:          0 HIT:          0 MISS:          0
cpu0_L1I TRANSLATION  ACCESS:          0 HIT:          0 MISS:          0
cpu0_L1I PREFETCH REQUESTED:          0 ISSUED:          0 USEFUL:          0 USELESS:          0
cpu0_L1I AVERAGE MISS LATENCY: 23.7 cycles
cpu0_L2C TOTAL        ACCESS:    1373680 HIT:     656983 MISS:     716697
cpu0_L2C LOAD         ACCESS:     480553 HIT:     183559 MISS:     296994
cpu0_L2C RFO          ACCESS:      40088 HIT:       9403 MISS:      30685
cpu0_L2C PREFETCH     ACCESS:     418085 HIT:     151934 MISS:     266151
cpu0_L2C WRITE        ACCESS:     274309 HIT:     272940 MISS:       1369
cpu0_L2C TRANSLATION  ACCESS:     160645 HIT:      39147 MISS:     121498
cpu0_L2C PREFETCH REQUESTED:       3827 ISSUED:       3827 USEFUL:        626 USELESS:       2877
cpu0_L2C AVERAGE MISS LATENCY: 295.2 cycles
cpu0_STLB TOTAL        ACCESS:     538164 HIT:     414450 MISS:     123714
cpu0_STLB LOAD         ACCESS:     538164 HIT:     414450 MISS:     123714
cpu0_STLB RFO          ACCESS:          0 HIT:          0 MISS:          0
cpu0_STLB PREFETCH     ACCESS:          0 HIT:          0 MISS:          0
cpu0_STLB WRITE        ACCESS:          0 HIT:          0 MISS:          0
cpu0_STLB TRANSLATION  ACCESS:          0 HIT:          0 MISS:          0
cpu0_STLB PREFETCH REQUESTED:          0 ISSUED:          0 USEFUL:          0 USELESS:          0
cpu0_STLB AVERAGE MISS LATENCY: 402.5 cycles

DRAM Statistics

Channel 0 RQ ROW_BUFFER_HIT:      41836
  ROW_BUFFER_MISS:     474087
 AVG DBUS CONGESTED CYCLE: 3.946
WQ ROW_BUFFER_HIT: Channel 0 
  ROW_BUFFER_MISS:       3336
  FULL:     128087
