WARNING: physical memory size is smaller than virtual memory size.

*** ChampSim Multicore Out-of-Order Simulator ***
Warmup Instructions: 25000000
Simulation Instructions: 25000000
Number of CPUs: 1
Page size: 4096

Off-chip DRAM Size: 4 GiB Channels: 1 Width: 64-bit Data Race: 800 MT/s
Heartbeat CPU 0 instructions: 10000000 cycles: 2502332 heartbeat IPC: 3.996 cumulative IPC: 3.996 (Simulation time: 00 hr 00 min 44 sec)
Heartbeat CPU 0 instructions: 20000001 cycles: 5004332 heartbeat IPC: 3.997 cumulative IPC: 3.997 (Simulation time: 00 hr 01 min 30 sec)
Warmup finished CPU 0 instructions: 25000001 cycles: 6255480 cumulative IPC: 3.996 (Simulation time: 00 hr 01 min 53 sec)
Warmup complete CPU 0 instructions: 25000001 cycles: 6255480 cumulative IPC: 3.996 (Simulation time: 00 hr 01 min 53 sec)
Heartbeat CPU 0 instructions: 30000002 cycles: 19510436 heartbeat IPC: 0.6894 cumulative IPC: 0.3772 (Simulation time: 00 hr 03 min 29 sec)
Heartbeat CPU 0 instructions: 40000000 cycles: 44905831 heartbeat IPC: 0.3938 cumulative IPC: 0.3881 (Simulation time: 00 hr 06 min 43 sec)
Heartbeat CPU 0 instructions: 50000001 cycles: 70259672 heartbeat IPC: 0.3944 cumulative IPC: 0.3906 (Simulation time: 00 hr 09 min 58 sec)
Simulation finished CPU 0 instructions: 25000000 cycles: 64004193 cumulative IPC: 0.3906 (Simulation time: 00 hr 09 min 58 sec)
Simulation complete CPU 0 instructions: 25000000 cycles: 64004193 cumulative IPC: 0.3906 (Simulation time: 00 hr 09 min 58 sec)

ChampSim completed all CPUs

=== Simulation ===
CPU 0 runs ./traces/620.omnetpp_s-874B.champsimtrace.xz
Region of Interest Statistics

CPU 0 cumulative IPC: 0.3906 instructions: 25000000 cycles: 64004193
CPU 0 Branch Prediction Accuracy: 92.93% MPKI: 14.75 Average ROB Occupancy at Mispredict: 58.85
Branch type MPKI
BRANCH_DIRECT_JUMP: 0.944
BRANCH_INDIRECT: 0.117
BRANCH_CONDITIONAL: 12.6
BRANCH_DIRECT_CALL: 0.00312
BRANCH_INDIRECT_CALL: 0.731
BRANCH_RETURN: 0.39

LLC TOTAL        ACCESS:     882507 HIT:     377676 MISS:     504831
LLC LOAD         ACCESS:     287494 HIT:      98761 MISS:     188733
LLC RFO          ACCESS:      34296 HIT:      15089 MISS:      19207
LLC PREFETCH     ACCESS:     255248 HIT:      81982 MISS:     173266
LLC WRITE        ACCESS:     199462 HIT:     172948 MISS:      26514
LLC TRANSLATION  ACCESS:     106007 HIT:       8896 MISS:      97111
LLC PREFETCH REQUESTED:          0 ISSUED:          0 USEFUL:          0 USELESS:          0
LLC AVERAGE MISS LATENCY: 357.6 cycles
cpu0_DTLB TOTAL        ACCESS:    7864596 HIT:    7257776 MISS:     606820
cpu0_DTLB LOAD         ACCESS:    7864596 HIT:    7257776 MISS:     606820
cpu0_DTLB RFO          ACCESS:          0 HIT:          0 MISS:          0
cpu0_DTLB PREFETCH     ACCESS:          0 HIT:          0 MISS:          0
cpu0_DTLB WRITE        ACCESS:          0 HIT:          0 MISS:          0
cpu0_DTLB TRANSLATION  ACCESS:          0 HIT:          0 MISS:          0
cpu0_DTLB PREFETCH REQUESTED:          0 ISSUED:          0 USEFUL:          0 USELESS:          0
cpu0_DTLB AVERAGE MISS LATENCY: 76.67 cycles
cpu0_ITLB TOTAL        ACCESS:    2032046 HIT:    1974986 MISS:      57060
cpu0_ITLB LOAD         ACCESS:    2032046 HIT:    1974986 MISS:      57060
cpu0_ITLB RFO          ACCESS:          0 HIT:          0 MISS:          0
cpu0_ITLB PREFETCH     ACCESS:          0 HIT:          0 MISS:          0
cpu0_ITLB WRITE        ACCESS:          0 HIT:          0 MISS:          0
cpu0_ITLB TRANSLATION  ACCESS:          0 HIT:          0 MISS:          0
cpu0_ITLB PREFETCH REQUESTED:          0 ISSUED:          0 USEFUL:          0 USELESS:          0
cpu0_ITLB AVERAGE MISS LATENCY: 5.48 cycles
cpu0_L1D TOTAL        ACCESS:   14706176 HIT:   13082865 MISS:    1623311
cpu0_L1D LOAD         ACCESS:    5559713 HIT:    4877166 MISS:     682547
cpu0_L1D RFO          ACCESS:          0 HIT:          0 MISS:          0
cpu0_L1D PREFETCH     ACCESS:    4387616 HIT:    3734671 MISS:     652945
cpu0_L1D WRITE        ACCESS:    4605514 HIT:    4459728 MISS:     145786
cpu0_L1D TRANSLATION  ACCESS:     153333 HIT:      11300 MISS:     142033
cpu0_L1D PREFETCH REQUESTED:    5579546 ISSUED:    4387612 USEFUL:      94023 USELESS:     286085
cpu0_L1D AVERAGE MISS LATENCY: 121.2 cycles
cpu0_L1I TOTAL        ACCESS:    2223439 HIT:    2210717 MISS:      12722
cpu0_L1I LOAD         ACCESS:    2223439 HIT:    2210717 MISS:      12722
cpu0_L1I RFO          ACCESS:          0 HIT:          0 MISS:          0
cpu0_L1I PREFETCH     ACCESS:          0 HIT:          0 MISS:          0
cpu0_L1I WRITE        ACCESS:          0 HIT:          0 MISS:          0
cpu0_L1I TRANSLATION  ACCESS:          0 HIT:          0 MISS:          0
cpu0_L1I PREFETCH REQUESTED:          0 ISSUED:          0 USEFUL:          0 USELESS:          0
cpu0_L1I AVERAGE MISS LATENCY: 25.94 cycles
cpu0_L2C TOTAL        ACCESS:    1286058 HIT:     601528 MISS:     684530
cpu0_L2C LOAD         ACCESS:     447920 HIT:     160415 MISS:     287505
cpu0_L2C RFO          ACCESS:      41992 HIT:       7696 MISS:      34296
cpu0_L2C PREFETCH     ACCESS:     385083 HIT:     129817 MISS:     255266
cpu0_L2C WRITE        ACCESS:     269279 HIT:     267822 MISS:       1457
cpu0_L2C TRANSLATION  ACCESS:     141784 HIT:      35778 MISS:     106006
cpu0_L2C PREFETCH REQUESTED:       4920 ISSUED:       4920 USEFUL:        939 USELESS:       3366
cpu0_L2C AVERAGE MISS LATENCY: 284.4 cycles
cpu0_STLB TOTAL        ACCESS:     508623 HIT:     398353 MISS:     110270
cpu0_STLB LOAD         ACCESS:     508623 HIT:     398353 MISS:     110270
cpu0_STLB RFO          ACCESS:          0 HIT:          0 MISS:          0
cpu0_STLB PREFETCH     ACCESS:          0 HIT:          0 MISS:          0
cpu0_STLB WRITE        ACCESS:          0 HIT:          0 MISS:          0
cpu0_STLB TRANSLATION  ACCESS:          0 HIT:          0 MISS:          0
cpu0_STLB PREFETCH REQUESTED:          0 ISSUED:          0 USEFUL:          0 USELESS:          0
cpu0_STLB AVERAGE MISS LATENCY: 398.9 cycles

DRAM Statistics

Channel 0 RQ ROW_BUFFER_HIT:      45432
  ROW_BUFFER_MISS:     432685
 AVG DBUS CONGESTED CYCLE: 3.943
WQ ROW_BUFFER_HIT: Channel 0 
  ROW_BUFFER_MISS:       2469
  FULL:     118471
