WARNING: physical memory size is smaller than virtual memory size.

*** ChampSim Multicore Out-of-Order Simulator ***
Warmup Instructions: 25000000
Simulation Instructions: 25000000
Number of CPUs: 1
Page size: 4096

Off-chip DRAM Size: 4 GiB Channels: 1 Width: 64-bit Data Race: 800 MT/s
Heartbeat CPU 0 instructions: 10000003 cycles: 2605674 heartbeat IPC: 3.838 cumulative IPC: 3.838 (Simulation time: 00 hr 00 min 40 sec)
Heartbeat CPU 0 instructions: 20000003 cycles: 5105674 heartbeat IPC: 4 cumulative IPC: 3.917 (Simulation time: 00 hr 01 min 17 sec)
Warmup finished CPU 0 instructions: 25000003 cycles: 6355675 cumulative IPC: 3.933 (Simulation time: 00 hr 01 min 36 sec)
Warmup complete CPU 0 instructions: 25000003 cycles: 6355675 cumulative IPC: 3.933 (Simulation time: 00 hr 01 min 36 sec)
Heartbeat CPU 0 instructions: 30000000 cycles: 11348398 heartbeat IPC: 1.602 cumulative IPC: 1.001 (Simulation time: 00 hr 02 min 31 sec)
Heartbeat CPU 0 instructions: 40000001 cycles: 20704580 heartbeat IPC: 1.069 cumulative IPC: 1.045 (Simulation time: 00 hr 04 min 10 sec)
Heartbeat CPU 0 instructions: 50000003 cycles: 26637780 heartbeat IPC: 1.685 cumulative IPC: 1.233 (Simulation time: 00 hr 05 min 26 sec)
Simulation finished CPU 0 instructions: 25000000 cycles: 20282106 cumulative IPC: 1.233 (Simulation time: 00 hr 05 min 26 sec)
Simulation complete CPU 0 instructions: 25000000 cycles: 20282106 cumulative IPC: 1.233 (Simulation time: 00 hr 05 min 26 sec)

ChampSim completed all CPUs

=== Simulation ===
CPU 0 runs ./traces/621.wrf_s-8065B.champsimtrace.xz
Region of Interest Statistics

CPU 0 cumulative IPC: 1.233 instructions: 25000000 cycles: 20282106
CPU 0 Branch Prediction Accuracy: 95.11% MPKI: 1.601 Average ROB Occupancy at Mispredict: 236.1
Branch type MPKI
BRANCH_DIRECT_JUMP: 0.00028
BRANCH_INDIRECT: 0
BRANCH_CONDITIONAL: 1.6
BRANCH_DIRECT_CALL: 0.00096
BRANCH_INDIRECT_CALL: 0
BRANCH_RETURN: 0.00104

LLC TOTAL        ACCESS:     434957 HIT:     252680 MISS:     182277
LLC LOAD         ACCESS:      65887 HIT:      39720 MISS:      26167
LLC RFO          ACCESS:      76663 HIT:      26059 MISS:      50604
LLC PREFETCH     ACCESS:     153121 HIT:      71824 MISS:      81297
LLC WRITE        ACCESS:     139078 HIT:     115052 MISS:      24026
LLC TRANSLATION  ACCESS:        208 HIT:         25 MISS:        183
LLC PREFETCH REQUESTED:          0 ISSUED:          0 USEFUL:          0 USELESS:          0
LLC AVERAGE MISS LATENCY: 701.9 cycles
cpu0_DTLB TOTAL        ACCESS:    5961398 HIT:    5922853 MISS:      38545
cpu0_DTLB LOAD         ACCESS:    5961398 HIT:    5922853 MISS:      38545
cpu0_DTLB RFO          ACCESS:          0 HIT:          0 MISS:          0
cpu0_DTLB PREFETCH     ACCESS:          0 HIT:          0 MISS:          0
cpu0_DTLB WRITE        ACCESS:          0 HIT:          0 MISS:          0
cpu0_DTLB TRANSLATION  ACCESS:          0 HIT:          0 MISS:          0
cpu0_DTLB PREFETCH REQUESTED:          0 ISSUED:          0 USEFUL:          0 USELESS:          0
cpu0_DTLB AVERAGE MISS LATENCY: 11.43 cycles
cpu0_ITLB TOTAL        ACCESS:       1833 HIT:       1742 MISS:         91
cpu0_ITLB LOAD         ACCESS:       1833 HIT:       1742 MISS:         91
cpu0_ITLB RFO          ACCESS:          0 HIT:          0 MISS:          0
cpu0_ITLB PREFETCH     ACCESS:          0 HIT:          0 MISS:          0
cpu0_ITLB WRITE        ACCESS:          0 HIT:          0 MISS:          0
cpu0_ITLB TRANSLATION  ACCESS:          0 HIT:          0 MISS:          0
cpu0_ITLB PREFETCH REQUESTED:          0 ISSUED:          0 USEFUL:          0 USELESS:          0
cpu0_ITLB AVERAGE MISS LATENCY: 135.5 cycles
cpu0_L1D TOTAL        ACCESS:    9743951 HIT:    8093291 MISS:    1650660
cpu0_L1D LOAD         ACCESS:    6243175 HIT:    5503104 MISS:     740071
cpu0_L1D RFO          ACCESS:          0 HIT:          0 MISS:          0
cpu0_L1D PREFETCH     ACCESS:    2402880 HIT:    1889236 MISS:     513644
cpu0_L1D WRITE        ACCESS:    1096080 HIT:     700228 MISS:     395852
cpu0_L1D TRANSLATION  ACCESS:       1816 HIT:        723 MISS:       1093
cpu0_L1D PREFETCH REQUESTED:    6570548 ISSUED:    2402885 USEFUL:     194261 USELESS:      10644
cpu0_L1D AVERAGE MISS LATENCY: 66.44 cycles
cpu0_L1I TOTAL        ACCESS:       2310 HIT:        533 MISS:       1777
cpu0_L1I LOAD         ACCESS:       2310 HIT:        533 MISS:       1777
cpu0_L1I RFO          ACCESS:          0 HIT:          0 MISS:          0
cpu0_L1I PREFETCH     ACCESS:          0 HIT:          0 MISS:          0
cpu0_L1I WRITE        ACCESS:          0 HIT:          0 MISS:          0
cpu0_L1I TRANSLATION  ACCESS:          0 HIT:          0 MISS:          0
cpu0_L1I PREFETCH REQUESTED:          0 ISSUED:          0 USEFUL:          0 USELESS:          0
cpu0_L1I AVERAGE MISS LATENCY: 336.7 cycles
cpu0_L2C TOTAL        ACCESS:     686291 HIT:     349689 MISS:     336602
cpu0_L2C LOAD         ACCESS:     131413 HIT:      56337 MISS:      75076
cpu0_L2C RFO          ACCESS:      84567 HIT:       7904 MISS:      76663
cpu0_L2C PREFETCH     ACCESS:     309821 HIT:     125253 MISS:     184568
cpu0_L2C WRITE        ACCESS:     159431 HIT:     159344 MISS:         87
cpu0_L2C TRANSLATION  ACCESS:       1059 HIT:        851 MISS:        208
cpu0_L2C PREFETCH REQUESTED:     104935 ISSUED:     104934 USEFUL:      42546 USELESS:       5853
cpu0_L2C AVERAGE MISS LATENCY: 393.8 cycles
cpu0_STLB TOTAL        ACCESS:      25194 HIT:      23385 MISS:       1809
cpu0_STLB LOAD         ACCESS:      25194 HIT:      23385 MISS:       1809
cpu0_STLB RFO          ACCESS:          0 HIT:          0 MISS:          0
cpu0_STLB PREFETCH     ACCESS:          0 HIT:          0 MISS:          0
cpu0_STLB WRITE        ACCESS:          0 HIT:          0 MISS:          0
cpu0_STLB TRANSLATION  ACCESS:          0 HIT:          0 MISS:          0
cpu0_STLB PREFETCH REQUESTED:          0 ISSUED:          0 USEFUL:          0 USELESS:          0
cpu0_STLB AVERAGE MISS LATENCY: 228 cycles

DRAM Statistics

Channel 0 RQ ROW_BUFFER_HIT:      43571
  ROW_BUFFER_MISS:     113531
 AVG DBUS CONGESTED CYCLE: 3.928
WQ ROW_BUFFER_HIT: Channel 0 
  ROW_BUFFER_MISS:       2715
  FULL:      73054
