WARNING: physical memory size is smaller than virtual memory size.

*** ChampSim Multicore Out-of-Order Simulator ***
Warmup Instructions: 25000000
Simulation Instructions: 25000000
Number of CPUs: 1
Page size: 4096

Off-chip DRAM Size: 4 GiB Channels: 1 Width: 64-bit Data Race: 800 MT/s
Heartbeat CPU 0 instructions: 10000002 cycles: 2500261 heartbeat IPC: 4 cumulative IPC: 4 (Simulation time: 00 hr 00 min 47 sec)
Heartbeat CPU 0 instructions: 20000002 cycles: 5000261 heartbeat IPC: 4 cumulative IPC: 4 (Simulation time: 00 hr 01 min 31 sec)
Warmup finished CPU 0 instructions: 25000002 cycles: 6254688 cumulative IPC: 3.997 (Simulation time: 00 hr 01 min 55 sec)
Warmup complete CPU 0 instructions: 25000002 cycles: 6254688 cumulative IPC: 3.997 (Simulation time: 00 hr 01 min 55 sec)
Heartbeat CPU 0 instructions: 30000001 cycles: 9824899 heartbeat IPC: 2.073 cumulative IPC: 1.4 (Simulation time: 00 hr 02 min 36 sec)
Heartbeat CPU 0 instructions: 40000003 cycles: 16686812 heartbeat IPC: 1.457 cumulative IPC: 1.438 (Simulation time: 00 hr 03 min 58 sec)
Heartbeat CPU 0 instructions: 50000002 cycles: 23537039 heartbeat IPC: 1.46 cumulative IPC: 1.447 (Simulation time: 00 hr 05 min 27 sec)
Simulation finished CPU 0 instructions: 25000000 cycles: 17282352 cumulative IPC: 1.447 (Simulation time: 00 hr 05 min 27 sec)
Simulation complete CPU 0 instructions: 25000000 cycles: 17282352 cumulative IPC: 1.447 (Simulation time: 00 hr 05 min 27 sec)

ChampSim completed all CPUs

=== Simulation ===
CPU 0 runs ./traces/623.xalancbmk_s-700B.champsimtrace.xz
Region of Interest Statistics

CPU 0 cumulative IPC: 1.447 instructions: 25000000 cycles: 17282352
CPU 0 Branch Prediction Accuracy: 93.12% MPKI: 17.91 Average ROB Occupancy at Mispredict: 21.09
Branch type MPKI
BRANCH_DIRECT_JUMP: 0.182
BRANCH_INDIRECT: 0.594
BRANCH_CONDITIONAL: 14.2
BRANCH_DIRECT_CALL: 0
BRANCH_INDIRECT_CALL: 0.61
BRANCH_RETURN: 2.37

LLC TOTAL        ACCESS:     775107 HIT:     721281 MISS:      53826
LLC LOAD         ACCESS:     542957 HIT:     541168 MISS:       1789
LLC RFO          ACCESS:      48965 HIT:       4640 MISS:      44325
LLC PREFETCH     ACCESS:      95370 HIT:      88727 MISS:       6643
LLC WRITE        ACCESS:      67960 HIT:      67449 MISS:        511
LLC TRANSLATION  ACCESS:      19855 HIT:      19297 MISS:        558
LLC PREFETCH REQUESTED:          0 ISSUED:          0 USEFUL:          0 USELESS:          0
LLC AVERAGE MISS LATENCY: 419.3 cycles
cpu0_DTLB TOTAL        ACCESS:    6800880 HIT:    5919585 MISS:     881295
cpu0_DTLB LOAD         ACCESS:    6800880 HIT:    5919585 MISS:     881295
cpu0_DTLB RFO          ACCESS:          0 HIT:          0 MISS:          0
cpu0_DTLB PREFETCH     ACCESS:          0 HIT:          0 MISS:          0
cpu0_DTLB WRITE        ACCESS:          0 HIT:          0 MISS:          0
cpu0_DTLB TRANSLATION  ACCESS:          0 HIT:          0 MISS:          0
cpu0_DTLB PREFETCH REQUESTED:          0 ISSUED:          0 USEFUL:          0 USELESS:          0
cpu0_DTLB AVERAGE MISS LATENCY: 4.981 cycles
cpu0_ITLB TOTAL        ACCESS:    1519570 HIT:    1481168 MISS:      38402
cpu0_ITLB LOAD         ACCESS:    1519570 HIT:    1481168 MISS:      38402
cpu0_ITLB RFO          ACCESS:          0 HIT:          0 MISS:          0
cpu0_ITLB PREFETCH     ACCESS:          0 HIT:          0 MISS:          0
cpu0_ITLB WRITE        ACCESS:          0 HIT:          0 MISS:          0
cpu0_ITLB TRANSLATION  ACCESS:          0 HIT:          0 MISS:          0
cpu0_ITLB PREFETCH REQUESTED:          0 ISSUED:          0 USEFUL:          0 USELESS:          0
cpu0_ITLB AVERAGE MISS LATENCY: 2.625 cycles
cpu0_L1D TOTAL        ACCESS:   12530667 HIT:    8492952 MISS:    4037715
cpu0_L1D LOAD         ACCESS:    5415336 HIT:    3056557 MISS:    2358779
cpu0_L1D RFO          ACCESS:          0 HIT:          0 MISS:          0
cpu0_L1D PREFETCH     ACCESS:    4305869 HIT:    2895587 MISS:    1410282
cpu0_L1D WRITE        ACCESS:    2777171 HIT:    2539993 MISS:     237178
cpu0_L1D TRANSLATION  ACCESS:      32291 HIT:        815 MISS:      31476
cpu0_L1D PREFETCH REQUESTED:    5903706 ISSUED:    4305869 USEFUL:      79975 USELESS:     162765
cpu0_L1D AVERAGE MISS LATENCY: 12.19 cycles
cpu0_L1I TOTAL        ACCESS:    1659485 HIT:    1508022 MISS:     151463
cpu0_L1I LOAD         ACCESS:    1659485 HIT:    1508022 MISS:     151463
cpu0_L1I RFO          ACCESS:          0 HIT:          0 MISS:          0
cpu0_L1I PREFETCH     ACCESS:          0 HIT:          0 MISS:          0
cpu0_L1I WRITE        ACCESS:          0 HIT:          0 MISS:          0
cpu0_L1I TRANSLATION  ACCESS:          0 HIT:          0 MISS:          0
cpu0_L1I PREFETCH REQUESTED:          0 ISSUED:          0 USEFUL:          0 USELESS:          0
cpu0_L1I AVERAGE MISS LATENCY: 8.394 cycles
cpu0_L2C TOTAL        ACCESS:    2065863 HIT:    1300565 MISS:     765298
cpu0_L2C LOAD         ACCESS:    1252437 HIT:     693454 MISS:     558983
cpu0_L2C RFO          ACCESS:      61807 HIT:      12808 MISS:      48999
cpu0_L2C PREFETCH     ACCESS:     613326 HIT:     475883 MISS:     137443
cpu0_L2C WRITE        ACCESS:     106817 HIT:     106799 MISS:         18
cpu0_L2C TRANSLATION  ACCESS:      31476 HIT:      11621 MISS:      19855
cpu0_L2C PREFETCH REQUESTED:     370656 ISSUED:     370621 USEFUL:      19971 USELESS:       3290
cpu0_L2C AVERAGE MISS LATENCY: 47.72 cycles
cpu0_STLB TOTAL        ACCESS:     545859 HIT:     513618 MISS:      32241
cpu0_STLB LOAD         ACCESS:     545859 HIT:     513618 MISS:      32241
cpu0_STLB RFO          ACCESS:          0 HIT:          0 MISS:          0
cpu0_STLB PREFETCH     ACCESS:          0 HIT:          0 MISS:          0
cpu0_STLB WRITE        ACCESS:          0 HIT:          0 MISS:          0
cpu0_STLB TRANSLATION  ACCESS:          0 HIT:          0 MISS:          0
cpu0_STLB PREFETCH REQUESTED:          0 ISSUED:          0 USEFUL:          0 USELESS:          0
cpu0_STLB AVERAGE MISS LATENCY: 37.67 cycles

DRAM Statistics

Channel 0 RQ ROW_BUFFER_HIT:      26332
  ROW_BUFFER_MISS:      26977
 AVG DBUS CONGESTED CYCLE: 3.973
WQ ROW_BUFFER_HIT: Channel 0 
  ROW_BUFFER_MISS:       2247
  FULL:      40505
