WARNING: physical memory size is smaller than virtual memory size.

*** ChampSim Multicore Out-of-Order Simulator ***
Warmup Instructions: 25000000
Simulation Instructions: 25000000
Number of CPUs: 1
Page size: 4096

Off-chip DRAM Size: 4 GiB Channels: 1 Width: 64-bit Data Race: 800 MT/s
Heartbeat CPU 0 instructions: 10000002 cycles: 2500210 heartbeat IPC: 4 cumulative IPC: 4 (Simulation time: 00 hr 00 min 40 sec)
Heartbeat CPU 0 instructions: 20000003 cycles: 5006997 heartbeat IPC: 3.989 cumulative IPC: 3.994 (Simulation time: 00 hr 01 min 21 sec)
Warmup finished CPU 0 instructions: 25000003 cycles: 6257015 cumulative IPC: 3.996 (Simulation time: 00 hr 01 min 41 sec)
Warmup complete CPU 0 instructions: 25000003 cycles: 6257015 cumulative IPC: 3.996 (Simulation time: 00 hr 01 min 41 sec)
Heartbeat CPU 0 instructions: 30000002 cycles: 9786702 heartbeat IPC: 2.092 cumulative IPC: 1.417 (Simulation time: 00 hr 02 min 20 sec)
Heartbeat CPU 0 instructions: 40000003 cycles: 16659789 heartbeat IPC: 1.455 cumulative IPC: 1.442 (Simulation time: 00 hr 03 min 36 sec)
Heartbeat CPU 0 instructions: 50000003 cycles: 21390107 heartbeat IPC: 2.114 cumulative IPC: 1.652 (Simulation time: 00 hr 04 min 37 sec)
Simulation finished CPU 0 instructions: 25000000 cycles: 15133093 cumulative IPC: 1.652 (Simulation time: 00 hr 04 min 37 sec)
Simulation complete CPU 0 instructions: 25000000 cycles: 15133093 cumulative IPC: 1.652 (Simulation time: 00 hr 04 min 37 sec)

ChampSim completed all CPUs

=== Simulation ===
CPU 0 runs ./traces/623.xalancbmk_s-325B.champsimtrace.xz
Region of Interest Statistics

CPU 0 cumulative IPC: 1.652 instructions: 25000000 cycles: 15133093
CPU 0 Branch Prediction Accuracy: 95.9% MPKI: 12.3 Average ROB Occupancy at Mispredict: 22.34
Branch type MPKI
BRANCH_DIRECT_JUMP: 0.119
BRANCH_INDIRECT: 0.389
BRANCH_CONDITIONAL: 9.83
BRANCH_DIRECT_CALL: 0
BRANCH_INDIRECT_CALL: 0.401
BRANCH_RETURN: 1.57

LLC TOTAL        ACCESS:     228249 HIT:     181571 MISS:      46678
LLC LOAD         ACCESS:     113362 HIT:     110738 MISS:       2624
LLC RFO          ACCESS:      33873 HIT:        795 MISS:      33078
LLC PREFETCH     ACCESS:      34810 HIT:      28383 MISS:       6427
LLC WRITE        ACCESS:      45671 HIT:      41397 MISS:       4274
LLC TRANSLATION  ACCESS:        533 HIT:        258 MISS:        275
LLC PREFETCH REQUESTED:          0 ISSUED:          0 USEFUL:          0 USELESS:          0
LLC AVERAGE MISS LATENCY: 401.7 cycles
cpu0_DTLB TOTAL        ACCESS:    7076240 HIT:    6510654 MISS:     565586
cpu0_DTLB LOAD         ACCESS:    7076240 HIT:    6510654 MISS:     565586
cpu0_DTLB RFO          ACCESS:          0 HIT:          0 MISS:          0
cpu0_DTLB PREFETCH     ACCESS:          0 HIT:          0 MISS:          0
cpu0_DTLB WRITE        ACCESS:          0 HIT:          0 MISS:          0
cpu0_DTLB TRANSLATION  ACCESS:          0 HIT:          0 MISS:          0
cpu0_DTLB PREFETCH REQUESTED:          0 ISSUED:          0 USEFUL:          0 USELESS:          0
cpu0_DTLB AVERAGE MISS LATENCY: 4.078 cycles
cpu0_ITLB TOTAL        ACCESS:     989142 HIT:     963916 MISS:      25226
cpu0_ITLB LOAD         ACCESS:     989142 HIT:     963916 MISS:      25226
cpu0_ITLB RFO          ACCESS:          0 HIT:          0 MISS:          0
cpu0_ITLB PREFETCH     ACCESS:          0 HIT:          0 MISS:          0
cpu0_ITLB WRITE        ACCESS:          0 HIT:          0 MISS:          0
cpu0_ITLB TRANSLATION  ACCESS:          0 HIT:          0 MISS:          0
cpu0_ITLB PREFETCH REQUESTED:          0 ISSUED:          0 USEFUL:          0 USELESS:          0
cpu0_ITLB AVERAGE MISS LATENCY: 2.191 cycles
cpu0_L1D TOTAL        ACCESS:   13442124 HIT:    8824050 MISS:    4618074
cpu0_L1D LOAD         ACCESS:    6145730 HIT:    3717999 MISS:    2427731
cpu0_L1D RFO          ACCESS:          0 HIT:          0 MISS:          0
cpu0_L1D PREFETCH     ACCESS:    5392190 HIT:    3387955 MISS:    2004235
cpu0_L1D WRITE        ACCESS:    1903596 HIT:    1718094 MISS:     185502
cpu0_L1D TRANSLATION  ACCESS:        608 HIT:          2 MISS:        606
cpu0_L1D PREFETCH REQUESTED:    6228829 ISSUED:    5392190 USEFUL:     150970 USELESS:     151224
cpu0_L1D AVERAGE MISS LATENCY: 6.69 cycles
cpu0_L1I TOTAL        ACCESS:    1079204 HIT:     983421 MISS:      95783
cpu0_L1I LOAD         ACCESS:    1079204 HIT:     983421 MISS:      95783
cpu0_L1I RFO          ACCESS:          0 HIT:          0 MISS:          0
cpu0_L1I PREFETCH     ACCESS:          0 HIT:          0 MISS:          0
cpu0_L1I WRITE        ACCESS:          0 HIT:          0 MISS:          0
cpu0_L1I TRANSLATION  ACCESS:          0 HIT:          0 MISS:          0
cpu0_L1I PREFETCH REQUESTED:          0 ISSUED:          0 USEFUL:          0 USELESS:          0
cpu0_L1I AVERAGE MISS LATENCY: 7.881 cycles
cpu0_L2C TOTAL        ACCESS:    1880217 HIT:    1672586 MISS:     207631
cpu0_L2C LOAD         ACCESS:     887109 HIT:     766885 MISS:     120224
cpu0_L2C RFO          ACCESS:      47710 HIT:      13799 MISS:      33911
cpu0_L2C PREFETCH     ACCESS:     851513 HIT:     798575 MISS:      52938
cpu0_L2C WRITE        ACCESS:      93279 HIT:      93254 MISS:         25
cpu0_L2C TRANSLATION  ACCESS:        606 HIT:         73 MISS:        533
cpu0_L2C PREFETCH REQUESTED:     549335 ISSUED:     549312 USEFUL:       9369 USELESS:       1869
cpu0_L2C AVERAGE MISS LATENCY: 107.5 cycles
cpu0_STLB TOTAL        ACCESS:     354805 HIT:     354197 MISS:        608
cpu0_STLB LOAD         ACCESS:     354805 HIT:     354197 MISS:        608
cpu0_STLB RFO          ACCESS:          0 HIT:          0 MISS:          0
cpu0_STLB PREFETCH     ACCESS:          0 HIT:          0 MISS:          0
cpu0_STLB WRITE        ACCESS:          0 HIT:          0 MISS:          0
cpu0_STLB TRANSLATION  ACCESS:          0 HIT:          0 MISS:          0
cpu0_STLB PREFETCH REQUESTED:          0 ISSUED:          0 USEFUL:          0 USELESS:          0
cpu0_STLB AVERAGE MISS LATENCY: 309.3 cycles

DRAM Statistics

Channel 0 RQ ROW_BUFFER_HIT:      20473
  ROW_BUFFER_MISS:      21922
 AVG DBUS CONGESTED CYCLE: 3.978
WQ ROW_BUFFER_HIT: Channel 0 
  ROW_BUFFER_MISS:       2518
  FULL:      36234
