WARNING: physical memory size is smaller than virtual memory size.

*** ChampSim Multicore Out-of-Order Simulator ***
Warmup Instructions: 25000000
Simulation Instructions: 25000000
Number of CPUs: 1
Page size: 4096

Off-chip DRAM Size: 4 GiB Channels: 1 Width: 64-bit Data Race: 800 MT/s
Heartbeat CPU 0 instructions: 10000003 cycles: 2500186 heartbeat IPC: 4 cumulative IPC: 4 (Simulation time: 00 hr 00 min 44 sec)
Heartbeat CPU 0 instructions: 20000003 cycles: 5000186 heartbeat IPC: 4 cumulative IPC: 4 (Simulation time: 00 hr 01 min 29 sec)
Warmup finished CPU 0 instructions: 25000003 cycles: 6253614 cumulative IPC: 3.998 (Simulation time: 00 hr 01 min 54 sec)
Warmup complete CPU 0 instructions: 25000003 cycles: 6253614 cumulative IPC: 3.998 (Simulation time: 00 hr 01 min 54 sec)
Heartbeat CPU 0 instructions: 30000000 cycles: 9300155 heartbeat IPC: 2.326 cumulative IPC: 1.641 (Simulation time: 00 hr 02 min 31 sec)
Heartbeat CPU 0 instructions: 40000001 cycles: 16733206 heartbeat IPC: 1.345 cumulative IPC: 1.431 (Simulation time: 00 hr 03 min 57 sec)
Heartbeat CPU 0 instructions: 50000000 cycles: 23797424 heartbeat IPC: 1.416 cumulative IPC: 1.425 (Simulation time: 00 hr 05 min 26 sec)
Simulation finished CPU 0 instructions: 25000000 cycles: 17543823 cumulative IPC: 1.425 (Simulation time: 00 hr 05 min 26 sec)
Simulation complete CPU 0 instructions: 25000000 cycles: 17543823 cumulative IPC: 1.425 (Simulation time: 00 hr 05 min 26 sec)

ChampSim completed all CPUs

=== Simulation ===
CPU 0 runs ./traces/623.xalancbmk_s-592B.champsimtrace.xz
Region of Interest Statistics

CPU 0 cumulative IPC: 1.425 instructions: 25000000 cycles: 17543823
CPU 0 Branch Prediction Accuracy: 93.12% MPKI: 17.45 Average ROB Occupancy at Mispredict: 21.23
Branch type MPKI
BRANCH_DIRECT_JUMP: 0.18
BRANCH_INDIRECT: 0.561
BRANCH_CONDITIONAL: 13.8
BRANCH_DIRECT_CALL: 0.00256
BRANCH_INDIRECT_CALL: 0.612
BRANCH_RETURN: 2.31

LLC TOTAL        ACCESS:     869967 HIT:     802138 MISS:      67829
LLC LOAD         ACCESS:     606524 HIT:     604003 MISS:       2521
LLC RFO          ACCESS:      61134 HIT:       7638 MISS:      53496
LLC PREFETCH     ACCESS:      94334 HIT:      87103 MISS:       7231
LLC WRITE        ACCESS:      84017 HIT:      81080 MISS:       2937
LLC TRANSLATION  ACCESS:      23958 HIT:      22314 MISS:       1644
LLC PREFETCH REQUESTED:          0 ISSUED:          0 USEFUL:          0 USELESS:          0
LLC AVERAGE MISS LATENCY: 436.8 cycles
cpu0_DTLB TOTAL        ACCESS:    6618166 HIT:    5602711 MISS:    1015455
cpu0_DTLB LOAD         ACCESS:    6618166 HIT:    5602711 MISS:    1015455
cpu0_DTLB RFO          ACCESS:          0 HIT:          0 MISS:          0
cpu0_DTLB PREFETCH     ACCESS:          0 HIT:          0 MISS:          0
cpu0_DTLB WRITE        ACCESS:          0 HIT:          0 MISS:          0
cpu0_DTLB TRANSLATION  ACCESS:          0 HIT:          0 MISS:          0
cpu0_DTLB PREFETCH REQUESTED:          0 ISSUED:          0 USEFUL:          0 USELESS:          0
cpu0_DTLB AVERAGE MISS LATENCY: 5.237 cycles
cpu0_ITLB TOTAL        ACCESS:    1456409 HIT:    1418487 MISS:      37922
cpu0_ITLB LOAD         ACCESS:    1456409 HIT:    1418487 MISS:      37922
cpu0_ITLB RFO          ACCESS:          0 HIT:          0 MISS:          0
cpu0_ITLB PREFETCH     ACCESS:          0 HIT:          0 MISS:          0
cpu0_ITLB WRITE        ACCESS:          0 HIT:          0 MISS:          0
cpu0_ITLB TRANSLATION  ACCESS:          0 HIT:          0 MISS:          0
cpu0_ITLB PREFETCH REQUESTED:          0 ISSUED:          0 USEFUL:          0 USELESS:          0
cpu0_ITLB AVERAGE MISS LATENCY: 3.163 cycles
cpu0_L1D TOTAL        ACCESS:   11994964 HIT:    8528097 MISS:    3466867
cpu0_L1D LOAD         ACCESS:    5252519 HIT:    3090323 MISS:    2162196
cpu0_L1D RFO          ACCESS:          0 HIT:          0 MISS:          0
cpu0_L1D PREFETCH     ACCESS:    3896116 HIT:    2900000 MISS:     996116
cpu0_L1D WRITE        ACCESS:    2808731 HIT:    2536786 MISS:     271945
cpu0_L1D TRANSLATION  ACCESS:      37598 HIT:        988 MISS:      36610
cpu0_L1D PREFETCH REQUESTED:    5864095 ISSUED:    3896115 USEFUL:      66326 USELESS:     160817
cpu0_L1D AVERAGE MISS LATENCY: 17.25 cycles
cpu0_L1I TOTAL        ACCESS:    1588744 HIT:    1444451 MISS:     144293
cpu0_L1I LOAD         ACCESS:    1588744 HIT:    1444451 MISS:     144293
cpu0_L1I RFO          ACCESS:          0 HIT:          0 MISS:          0
cpu0_L1I PREFETCH     ACCESS:          0 HIT:          0 MISS:          0
cpu0_L1I WRITE        ACCESS:          0 HIT:          0 MISS:          0
cpu0_L1I TRANSLATION  ACCESS:          0 HIT:          0 MISS:          0
cpu0_L1I PREFETCH REQUESTED:          0 ISSUED:          0 USEFUL:          0 USELESS:          0
cpu0_L1I AVERAGE MISS LATENCY: 8.786 cycles
cpu0_L2C TOTAL        ACCESS:    2071511 HIT:    1248898 MISS:     822613
cpu0_L2C LOAD         ACCESS:    1369753 HIT:     753639 MISS:     616114
cpu0_L2C RFO          ACCESS:      70828 HIT:       9640 MISS:      61188
cpu0_L2C PREFETCH     ACCESS:     479363 HIT:     358020 MISS:     121343
cpu0_L2C WRITE        ACCESS:     114977 HIT:     114967 MISS:         10
cpu0_L2C TRANSLATION  ACCESS:      36590 HIT:      12632 MISS:      23958
cpu0_L2C PREFETCH REQUESTED:     252431 ISSUED:     252295 USEFUL:      13590 USELESS:       3657
cpu0_L2C AVERAGE MISS LATENCY: 55.03 cycles
cpu0_STLB TOTAL        ACCESS:     621125 HIT:     583711 MISS:      37414
cpu0_STLB LOAD         ACCESS:     621125 HIT:     583711 MISS:      37414
cpu0_STLB RFO          ACCESS:          0 HIT:          0 MISS:          0
cpu0_STLB PREFETCH     ACCESS:          0 HIT:          0 MISS:          0
cpu0_STLB WRITE        ACCESS:          0 HIT:          0 MISS:          0
cpu0_STLB TRANSLATION  ACCESS:          0 HIT:          0 MISS:          0
cpu0_STLB PREFETCH REQUESTED:          0 ISSUED:          0 USEFUL:          0 USELESS:          0
cpu0_STLB AVERAGE MISS LATENCY: 45.95 cycles

DRAM Statistics

Channel 0 RQ ROW_BUFFER_HIT:      38562
  ROW_BUFFER_MISS:      26321
 AVG DBUS CONGESTED CYCLE: 3.974
WQ ROW_BUFFER_HIT: Channel 0 
  ROW_BUFFER_MISS:       4166
  FULL:      38950
