WARNING: physical memory size is smaller than virtual memory size.

*** ChampSim Multicore Out-of-Order Simulator ***
Warmup Instructions: 25000000
Simulation Instructions: 25000000
Number of CPUs: 1
Page size: 4096

Off-chip DRAM Size: 4 GiB Channels: 1 Width: 64-bit Data Race: 800 MT/s
Heartbeat CPU 0 instructions: 10000001 cycles: 2504942 heartbeat IPC: 3.992 cumulative IPC: 3.992 (Simulation time: 00 hr 00 min 38 sec)
Heartbeat CPU 0 instructions: 20000000 cycles: 5005881 heartbeat IPC: 3.998 cumulative IPC: 3.995 (Simulation time: 00 hr 01 min 17 sec)
Warmup finished CPU 0 instructions: 25000000 cycles: 6257435 cumulative IPC: 3.995 (Simulation time: 00 hr 01 min 36 sec)
Warmup complete CPU 0 instructions: 25000000 cycles: 6257435 cumulative IPC: 3.995 (Simulation time: 00 hr 01 min 36 sec)
Heartbeat CPU 0 instructions: 30000000 cycles: 16227892 heartbeat IPC: 0.8911 cumulative IPC: 0.5015 (Simulation time: 00 hr 02 min 51 sec)
Heartbeat CPU 0 instructions: 40000003 cycles: 35870008 heartbeat IPC: 0.5091 cumulative IPC: 0.5065 (Simulation time: 00 hr 05 min 20 sec)
Heartbeat CPU 0 instructions: 50000003 cycles: 60133708 heartbeat IPC: 0.4121 cumulative IPC: 0.464 (Simulation time: 00 hr 08 min 18 sec)
Simulation finished CPU 0 instructions: 25000003 cycles: 53876274 cumulative IPC: 0.464 (Simulation time: 00 hr 08 min 18 sec)
Simulation complete CPU 0 instructions: 25000003 cycles: 53876274 cumulative IPC: 0.464 (Simulation time: 00 hr 08 min 18 sec)

ChampSim completed all CPUs

=== Simulation ===
CPU 0 runs ./traces/623.xalancbmk_s-10B.champsimtrace.xz
Region of Interest Statistics

CPU 0 cumulative IPC: 0.464 instructions: 25000003 cycles: 53876274
CPU 0 Branch Prediction Accuracy: 94.41% MPKI: 14.5 Average ROB Occupancy at Mispredict: 40.16
Branch type MPKI
BRANCH_DIRECT_JUMP: 0.0934
BRANCH_INDIRECT: 0.0223
BRANCH_CONDITIONAL: 13.9
BRANCH_DIRECT_CALL: 4e-05
BRANCH_INDIRECT_CALL: 0.127
BRANCH_RETURN: 0.402

LLC TOTAL        ACCESS:     962776 HIT:     255100 MISS:     707676
LLC LOAD         ACCESS:     632596 HIT:     172242 MISS:     460354
LLC RFO          ACCESS:       5985 HIT:       3322 MISS:       2663
LLC PREFETCH     ACCESS:     278319 HIT:      59608 MISS:     218711
LLC WRITE        ACCESS:      13167 HIT:      12758 MISS:        409
LLC TRANSLATION  ACCESS:      32709 HIT:       7170 MISS:      25539
LLC PREFETCH REQUESTED:          0 ISSUED:          0 USEFUL:          0 USELESS:          0
LLC AVERAGE MISS LATENCY: 309.5 cycles
cpu0_DTLB TOTAL        ACCESS:    5868445 HIT:    5489728 MISS:     378717
cpu0_DTLB LOAD         ACCESS:    5868445 HIT:    5489728 MISS:     378717
cpu0_DTLB RFO          ACCESS:          0 HIT:          0 MISS:          0
cpu0_DTLB PREFETCH     ACCESS:          0 HIT:          0 MISS:          0
cpu0_DTLB WRITE        ACCESS:          0 HIT:          0 MISS:          0
cpu0_DTLB TRANSLATION  ACCESS:          0 HIT:          0 MISS:          0
cpu0_DTLB PREFETCH REQUESTED:          0 ISSUED:          0 USEFUL:          0 USELESS:          0
cpu0_DTLB AVERAGE MISS LATENCY: 28.12 cycles
cpu0_ITLB TOTAL        ACCESS:     344063 HIT:     302815 MISS:      41248
cpu0_ITLB LOAD         ACCESS:     344063 HIT:     302815 MISS:      41248
cpu0_ITLB RFO          ACCESS:          0 HIT:          0 MISS:          0
cpu0_ITLB PREFETCH     ACCESS:          0 HIT:          0 MISS:          0
cpu0_ITLB WRITE        ACCESS:          0 HIT:          0 MISS:          0
cpu0_ITLB TRANSLATION  ACCESS:          0 HIT:          0 MISS:          0
cpu0_ITLB PREFETCH REQUESTED:          0 ISSUED:          0 USEFUL:          0 USELESS:          0
cpu0_ITLB AVERAGE MISS LATENCY: 6.552 cycles
cpu0_L1D TOTAL        ACCESS:   12292415 HIT:    9993136 MISS:    2299279
cpu0_L1D LOAD         ACCESS:    6087197 HIT:    4857312 MISS:    1229885
cpu0_L1D RFO          ACCESS:          0 HIT:          0 MISS:          0
cpu0_L1D PREFETCH     ACCESS:    4846206 HIT:    3906031 MISS:     940175
cpu0_L1D WRITE        ACCESS:    1231483 HIT:    1154885 MISS:      76598
cpu0_L1D TRANSLATION  ACCESS:     127529 HIT:      74908 MISS:      52621
cpu0_L1D PREFETCH REQUESTED:    6088583 ISSUED:    4846209 USEFUL:      39014 USELESS:     275320
cpu0_L1D AVERAGE MISS LATENCY: 107 cycles
cpu0_L1I TOTAL        ACCESS:     382670 HIT:     244956 MISS:     137714
cpu0_L1I LOAD         ACCESS:     382670 HIT:     244956 MISS:     137714
cpu0_L1I RFO          ACCESS:          0 HIT:          0 MISS:          0
cpu0_L1I PREFETCH     ACCESS:          0 HIT:          0 MISS:          0
cpu0_L1I WRITE        ACCESS:          0 HIT:          0 MISS:          0
cpu0_L1I TRANSLATION  ACCESS:          0 HIT:          0 MISS:          0
cpu0_L1I PREFETCH REQUESTED:          0 ISSUED:          0 USEFUL:          0 USELESS:          0
cpu0_L1I AVERAGE MISS LATENCY: 12.83 cycles
cpu0_L2C TOTAL        ACCESS:    1230143 HIT:     278517 MISS:     951626
cpu0_L2C LOAD         ACCESS:     776625 HIT:     143590 MISS:     633035
cpu0_L2C RFO          ACCESS:      18757 HIT:      12770 MISS:       5987
cpu0_L2C PREFETCH     ACCESS:     335670 HIT:      56020 MISS:     279650
cpu0_L2C WRITE        ACCESS:      46867 HIT:      46622 MISS:        245
cpu0_L2C TRANSLATION  ACCESS:      52224 HIT:      19515 MISS:      32709
cpu0_L2C PREFETCH REQUESTED:      21297 ISSUED:      21297 USEFUL:       6389 USELESS:       6489
cpu0_L2C AVERAGE MISS LATENCY: 250.7 cycles
cpu0_STLB TOTAL        ACCESS:     186133 HIT:      59273 MISS:     126860
cpu0_STLB LOAD         ACCESS:     186133 HIT:      59273 MISS:     126860
cpu0_STLB RFO          ACCESS:          0 HIT:          0 MISS:          0
cpu0_STLB PREFETCH     ACCESS:          0 HIT:          0 MISS:          0
cpu0_STLB WRITE        ACCESS:          0 HIT:          0 MISS:          0
cpu0_STLB TRANSLATION  ACCESS:          0 HIT:          0 MISS:          0
cpu0_STLB PREFETCH REQUESTED:          0 ISSUED:          0 USEFUL:          0 USELESS:          0
cpu0_STLB AVERAGE MISS LATENCY: 78.94 cycles

DRAM Statistics

Channel 0 RQ ROW_BUFFER_HIT:     402528
  ROW_BUFFER_MISS:     304705
 AVG DBUS CONGESTED CYCLE: 3.864
WQ ROW_BUFFER_HIT: Channel 0 
  ROW_BUFFER_MISS:       1332
  FULL:       2593
