WARNING: physical memory size is smaller than virtual memory size.

*** ChampSim Multicore Out-of-Order Simulator ***
Warmup Instructions: 25000000
Simulation Instructions: 25000000
Number of CPUs: 1
Page size: 4096

Off-chip DRAM Size: 4 GiB Channels: 1 Width: 64-bit Data Race: 800 MT/s
Heartbeat CPU 0 instructions: 10000002 cycles: 2500210 heartbeat IPC: 4 cumulative IPC: 4 (Simulation time: 00 hr 00 min 46 sec)
Heartbeat CPU 0 instructions: 20000003 cycles: 5006997 heartbeat IPC: 3.989 cumulative IPC: 3.994 (Simulation time: 00 hr 01 min 33 sec)
Warmup finished CPU 0 instructions: 25000003 cycles: 6257015 cumulative IPC: 3.996 (Simulation time: 00 hr 01 min 56 sec)
Warmup complete CPU 0 instructions: 25000003 cycles: 6257015 cumulative IPC: 3.996 (Simulation time: 00 hr 01 min 56 sec)
Heartbeat CPU 0 instructions: 30000002 cycles: 9743537 heartbeat IPC: 2.111 cumulative IPC: 1.434 (Simulation time: 00 hr 02 min 40 sec)
Heartbeat CPU 0 instructions: 40000003 cycles: 16623119 heartbeat IPC: 1.454 cumulative IPC: 1.447 (Simulation time: 00 hr 04 min 07 sec)
Heartbeat CPU 0 instructions: 50000003 cycles: 21291640 heartbeat IPC: 2.142 cumulative IPC: 1.663 (Simulation time: 00 hr 05 min 17 sec)
Simulation finished CPU 0 instructions: 25000000 cycles: 15034626 cumulative IPC: 1.663 (Simulation time: 00 hr 05 min 17 sec)
Simulation complete CPU 0 instructions: 25000000 cycles: 15034626 cumulative IPC: 1.663 (Simulation time: 00 hr 05 min 17 sec)

ChampSim completed all CPUs

=== Simulation ===
CPU 0 runs ./traces/623.xalancbmk_s-325B.champsimtrace.xz
Region of Interest Statistics

CPU 0 cumulative IPC: 1.663 instructions: 25000000 cycles: 15034626
CPU 0 Branch Prediction Accuracy: 95.9% MPKI: 12.3 Average ROB Occupancy at Mispredict: 22.25
Branch type MPKI
BRANCH_DIRECT_JUMP: 0.119
BRANCH_INDIRECT: 0.389
BRANCH_CONDITIONAL: 9.83
BRANCH_DIRECT_CALL: 0
BRANCH_INDIRECT_CALL: 0.401
BRANCH_RETURN: 1.57

LLC TOTAL        ACCESS:     226583 HIT:     183923 MISS:      42660
LLC LOAD         ACCESS:     112674 HIT:     110601 MISS:       2073
LLC RFO          ACCESS:      33862 HIT:        772 MISS:      33090
LLC PREFETCH     ACCESS:      33895 HIT:      27996 MISS:       5899
LLC WRITE        ACCESS:      45622 HIT:      44310 MISS:       1312
LLC TRANSLATION  ACCESS:        530 HIT:        244 MISS:        286
LLC PREFETCH REQUESTED:          0 ISSUED:          0 USEFUL:          0 USELESS:          0
LLC AVERAGE MISS LATENCY: 436.6 cycles
cpu0_DTLB TOTAL        ACCESS:    7071527 HIT:    6506742 MISS:     564785
cpu0_DTLB LOAD         ACCESS:    7071527 HIT:    6506742 MISS:     564785
cpu0_DTLB RFO          ACCESS:          0 HIT:          0 MISS:          0
cpu0_DTLB PREFETCH     ACCESS:          0 HIT:          0 MISS:          0
cpu0_DTLB WRITE        ACCESS:          0 HIT:          0 MISS:          0
cpu0_DTLB TRANSLATION  ACCESS:          0 HIT:          0 MISS:          0
cpu0_DTLB PREFETCH REQUESTED:          0 ISSUED:          0 USEFUL:          0 USELESS:          0
cpu0_DTLB AVERAGE MISS LATENCY: 4.092 cycles
cpu0_ITLB TOTAL        ACCESS:     989136 HIT:     963910 MISS:      25226
cpu0_ITLB LOAD         ACCESS:     989136 HIT:     963910 MISS:      25226
cpu0_ITLB RFO          ACCESS:          0 HIT:          0 MISS:          0
cpu0_ITLB PREFETCH     ACCESS:          0 HIT:          0 MISS:          0
cpu0_ITLB WRITE        ACCESS:          0 HIT:          0 MISS:          0
cpu0_ITLB TRANSLATION  ACCESS:          0 HIT:          0 MISS:          0
cpu0_ITLB PREFETCH REQUESTED:          0 ISSUED:          0 USEFUL:          0 USELESS:          0
cpu0_ITLB AVERAGE MISS LATENCY: 2.194 cycles
cpu0_L1D TOTAL        ACCESS:   13430191 HIT:    8817291 MISS:    4612900
cpu0_L1D LOAD         ACCESS:    6140465 HIT:    3715258 MISS:    2425207
cpu0_L1D RFO          ACCESS:          0 HIT:          0 MISS:          0
cpu0_L1D PREFETCH     ACCESS:    5385470 HIT:    3384039 MISS:    2001431
cpu0_L1D WRITE        ACCESS:    1903648 HIT:    1717992 MISS:     185656
cpu0_L1D TRANSLATION  ACCESS:        608 HIT:          2 MISS:        606
cpu0_L1D PREFETCH REQUESTED:    6225177 ISSUED:    5385470 USEFUL:     150972 USELESS:     150203
cpu0_L1D AVERAGE MISS LATENCY: 6.672 cycles
cpu0_L1I TOTAL        ACCESS:    1079197 HIT:     983414 MISS:      95783
cpu0_L1I LOAD         ACCESS:    1079197 HIT:     983414 MISS:      95783
cpu0_L1I RFO          ACCESS:          0 HIT:          0 MISS:          0
cpu0_L1I PREFETCH     ACCESS:          0 HIT:          0 MISS:          0
cpu0_L1I WRITE        ACCESS:          0 HIT:          0 MISS:          0
cpu0_L1I TRANSLATION  ACCESS:          0 HIT:          0 MISS:          0
cpu0_L1I PREFETCH REQUESTED:          0 ISSUED:          0 USEFUL:          0 USELESS:          0
cpu0_L1I AVERAGE MISS LATENCY: 7.799 cycles
cpu0_L2C TOTAL        ACCESS:    1879307 HIT:    1673483 MISS:     205824
cpu0_L2C LOAD         ACCESS:     887085 HIT:     767578 MISS:     119507
cpu0_L2C RFO          ACCESS:      47712 HIT:      13814 MISS:      33898
cpu0_L2C PREFETCH     ACCESS:     850617 HIT:     798754 MISS:      51863
cpu0_L2C WRITE        ACCESS:      93287 HIT:      93261 MISS:         26
cpu0_L2C TRANSLATION  ACCESS:        606 HIT:         76 MISS:        530
cpu0_L2C PREFETCH REQUESTED:     549462 ISSUED:     549435 USEFUL:       9318 USELESS:       1846
cpu0_L2C AVERAGE MISS LATENCY: 107.6 cycles
cpu0_STLB TOTAL        ACCESS:     354787 HIT:     354179 MISS:        608
cpu0_STLB LOAD         ACCESS:     354787 HIT:     354179 MISS:        608
cpu0_STLB RFO          ACCESS:          0 HIT:          0 MISS:          0
cpu0_STLB PREFETCH     ACCESS:          0 HIT:          0 MISS:          0
cpu0_STLB WRITE        ACCESS:          0 HIT:          0 MISS:          0
cpu0_STLB TRANSLATION  ACCESS:          0 HIT:          0 MISS:          0
cpu0_STLB PREFETCH REQUESTED:          0 ISSUED:          0 USEFUL:          0 USELESS:          0
cpu0_STLB AVERAGE MISS LATENCY: 314.9 cycles

DRAM Statistics

Channel 0 RQ ROW_BUFFER_HIT:      20237
  ROW_BUFFER_MISS:      21105
 AVG DBUS CONGESTED CYCLE: 3.979
WQ ROW_BUFFER_HIT: Channel 0 
  ROW_BUFFER_MISS:       3570
  FULL:      35567
