WARNING: physical memory size is smaller than virtual memory size.

*** ChampSim Multicore Out-of-Order Simulator ***
Warmup Instructions: 25000000
Simulation Instructions: 25000000
Number of CPUs: 1
Page size: 4096

Off-chip DRAM Size: 4 GiB Channels: 1 Width: 64-bit Data Race: 800 MT/s
Heartbeat CPU 0 instructions: 10000001 cycles: 2500075 heartbeat IPC: 4 cumulative IPC: 4 (Simulation time: 00 hr 00 min 45 sec)
Heartbeat CPU 0 instructions: 20000001 cycles: 5000075 heartbeat IPC: 4 cumulative IPC: 4 (Simulation time: 00 hr 01 min 29 sec)
Warmup finished CPU 0 instructions: 25000001 cycles: 6250076 cumulative IPC: 4 (Simulation time: 00 hr 01 min 51 sec)
Warmup complete CPU 0 instructions: 25000001 cycles: 6250076 cumulative IPC: 4 (Simulation time: 00 hr 01 min 51 sec)
Heartbeat CPU 0 instructions: 30000001 cycles: 9530449 heartbeat IPC: 2.207 cumulative IPC: 1.524 (Simulation time: 00 hr 02 min 29 sec)
Heartbeat CPU 0 instructions: 40000002 cycles: 15936683 heartbeat IPC: 1.561 cumulative IPC: 1.549 (Simulation time: 00 hr 03 min 48 sec)
Heartbeat CPU 0 instructions: 50000000 cycles: 22428126 heartbeat IPC: 1.54 cumulative IPC: 1.545 (Simulation time: 00 hr 05 min 08 sec)
Simulation finished CPU 0 instructions: 25000002 cycles: 16178052 cumulative IPC: 1.545 (Simulation time: 00 hr 05 min 08 sec)
Simulation complete CPU 0 instructions: 25000002 cycles: 16178052 cumulative IPC: 1.545 (Simulation time: 00 hr 05 min 08 sec)

ChampSim completed all CPUs

=== Simulation ===
CPU 0 runs ./traces/623.xalancbmk_s-165B.champsimtrace.xz
Region of Interest Statistics

CPU 0 cumulative IPC: 1.545 instructions: 25000002 cycles: 16178052
CPU 0 Branch Prediction Accuracy: 96.52% MPKI: 9.703 Average ROB Occupancy at Mispredict: 51.52
Branch type MPKI
BRANCH_DIRECT_JUMP: 0
BRANCH_INDIRECT: 0
BRANCH_CONDITIONAL: 9.7
BRANCH_DIRECT_CALL: 0
BRANCH_INDIRECT_CALL: 0
BRANCH_RETURN: 0

LLC TOTAL        ACCESS:     516692 HIT:     417573 MISS:      99119
LLC LOAD         ACCESS:     233384 HIT:     188580 MISS:      44804
LLC RFO          ACCESS:         85 HIT:         56 MISS:         29
LLC PREFETCH     ACCESS:     282990 HIT:     228768 MISS:      54222
LLC WRITE        ACCESS:        201 HIT:        169 MISS:         32
LLC TRANSLATION  ACCESS:         32 HIT:          0 MISS:         32
LLC PREFETCH REQUESTED:          0 ISSUED:          0 USEFUL:          0 USELESS:          0
LLC AVERAGE MISS LATENCY: 196.3 cycles
cpu0_DTLB TOTAL        ACCESS:    6040047 HIT:    6006778 MISS:      33269
cpu0_DTLB LOAD         ACCESS:    6040047 HIT:    6006778 MISS:      33269
cpu0_DTLB RFO          ACCESS:          0 HIT:          0 MISS:          0
cpu0_DTLB PREFETCH     ACCESS:          0 HIT:          0 MISS:          0
cpu0_DTLB WRITE        ACCESS:          0 HIT:          0 MISS:          0
cpu0_DTLB TRANSLATION  ACCESS:          0 HIT:          0 MISS:          0
cpu0_DTLB PREFETCH REQUESTED:          0 ISSUED:          0 USEFUL:          0 USELESS:          0
cpu0_DTLB AVERAGE MISS LATENCY: 1.1 cycles
cpu0_ITLB TOTAL        ACCESS:          0 HIT:          0 MISS:          0
cpu0_ITLB LOAD         ACCESS:          0 HIT:          0 MISS:          0
cpu0_ITLB RFO          ACCESS:          0 HIT:          0 MISS:          0
cpu0_ITLB PREFETCH     ACCESS:          0 HIT:          0 MISS:          0
cpu0_ITLB WRITE        ACCESS:          0 HIT:          0 MISS:          0
cpu0_ITLB TRANSLATION  ACCESS:          0 HIT:          0 MISS:          0
cpu0_ITLB PREFETCH REQUESTED:          0 ISSUED:          0 USEFUL:          0 USELESS:          0
cpu0_ITLB AVERAGE MISS LATENCY: -nan cycles
cpu0_L1D TOTAL        ACCESS:   12034155 HIT:    9577591 MISS:    2456564
cpu0_L1D LOAD         ACCESS:    6766521 HIT:    5251202 MISS:    1515319
cpu0_L1D RFO          ACCESS:          0 HIT:          0 MISS:          0
cpu0_L1D PREFETCH     ACCESS:    4939333 HIT:    3998625 MISS:     940708
cpu0_L1D WRITE        ACCESS:     328269 HIT:     327764 MISS:        505
cpu0_L1D TRANSLATION  ACCESS:         32 HIT:          0 MISS:         32
cpu0_L1D PREFETCH REQUESTED:    6766533 ISSUED:    4939332 USEFUL:      82731 USELESS:      40731
cpu0_L1D AVERAGE MISS LATENCY: 7.494 cycles
cpu0_L1I TOTAL        ACCESS:          0 HIT:          0 MISS:          0
cpu0_L1I LOAD         ACCESS:          0 HIT:          0 MISS:          0
cpu0_L1I RFO          ACCESS:          0 HIT:          0 MISS:          0
cpu0_L1I PREFETCH     ACCESS:          0 HIT:          0 MISS:          0
cpu0_L1I WRITE        ACCESS:          0 HIT:          0 MISS:          0
cpu0_L1I TRANSLATION  ACCESS:          0 HIT:          0 MISS:          0
cpu0_L1I PREFETCH REQUESTED:          0 ISSUED:          0 USEFUL:          0 USELESS:          0
cpu0_L1I AVERAGE MISS LATENCY: -nan cycles
cpu0_L2C TOTAL        ACCESS:     830167 HIT:     305274 MISS:     524893
cpu0_L2C LOAD         ACCESS:     392706 HIT:     158395 MISS:     234311
cpu0_L2C RFO          ACCESS:        102 HIT:         17 MISS:         85
cpu0_L2C PREFETCH     ACCESS:     437127 HIT:     146662 MISS:     290465
cpu0_L2C WRITE        ACCESS:        200 HIT:        200 MISS:          0
cpu0_L2C TRANSLATION  ACCESS:         32 HIT:          0 MISS:         32
cpu0_L2C PREFETCH REQUESTED:     313665 ISSUED:     313665 USEFUL:     220135 USELESS:       2592
cpu0_L2C AVERAGE MISS LATENCY: 56.45 cycles
cpu0_STLB TOTAL        ACCESS:       8783 HIT:       8751 MISS:         32
cpu0_STLB LOAD         ACCESS:       8783 HIT:       8751 MISS:         32
cpu0_STLB RFO          ACCESS:          0 HIT:          0 MISS:          0
cpu0_STLB PREFETCH     ACCESS:          0 HIT:          0 MISS:          0
cpu0_STLB WRITE        ACCESS:          0 HIT:          0 MISS:          0
cpu0_STLB TRANSLATION  ACCESS:          0 HIT:          0 MISS:          0
cpu0_STLB PREFETCH REQUESTED:          0 ISSUED:          0 USEFUL:          0 USELESS:          0
cpu0_STLB AVERAGE MISS LATENCY: 698.9 cycles

DRAM Statistics

Channel 0 RQ ROW_BUFFER_HIT:      91167
  ROW_BUFFER_MISS:       7920
 AVG DBUS CONGESTED CYCLE: 3.907
WQ ROW_BUFFER_HIT: Channel 0 
  ROW_BUFFER_MISS:         86
  FULL:         20
