WARNING: physical memory size is smaller than virtual memory size.

*** ChampSim Multicore Out-of-Order Simulator ***
Warmup Instructions: 25000000
Simulation Instructions: 25000000
Number of CPUs: 1
Page size: 4096

Off-chip DRAM Size: 4 GiB Channels: 1 Width: 64-bit Data Race: 800 MT/s
Heartbeat CPU 0 instructions: 10000003 cycles: 2500186 heartbeat IPC: 4 cumulative IPC: 4 (Simulation time: 00 hr 00 min 37 sec)
Heartbeat CPU 0 instructions: 20000003 cycles: 5000186 heartbeat IPC: 4 cumulative IPC: 4 (Simulation time: 00 hr 01 min 16 sec)
Warmup finished CPU 0 instructions: 25000003 cycles: 6253613 cumulative IPC: 3.998 (Simulation time: 00 hr 01 min 37 sec)
Warmup complete CPU 0 instructions: 25000003 cycles: 6253613 cumulative IPC: 3.998 (Simulation time: 00 hr 01 min 37 sec)
Heartbeat CPU 0 instructions: 30000000 cycles: 9348712 heartbeat IPC: 2.3 cumulative IPC: 1.615 (Simulation time: 00 hr 02 min 12 sec)
Heartbeat CPU 0 instructions: 40000001 cycles: 16798631 heartbeat IPC: 1.342 cumulative IPC: 1.422 (Simulation time: 00 hr 03 min 32 sec)
Heartbeat CPU 0 instructions: 50000000 cycles: 23874904 heartbeat IPC: 1.413 cumulative IPC: 1.419 (Simulation time: 00 hr 04 min 51 sec)
Simulation finished CPU 0 instructions: 25000000 cycles: 17621304 cumulative IPC: 1.419 (Simulation time: 00 hr 04 min 51 sec)
Simulation complete CPU 0 instructions: 25000000 cycles: 17621304 cumulative IPC: 1.419 (Simulation time: 00 hr 04 min 51 sec)

ChampSim completed all CPUs

=== Simulation ===
CPU 0 runs ./traces/623.xalancbmk_s-592B.champsimtrace.xz
Region of Interest Statistics

CPU 0 cumulative IPC: 1.419 instructions: 25000000 cycles: 17621304
CPU 0 Branch Prediction Accuracy: 93.12% MPKI: 17.45 Average ROB Occupancy at Mispredict: 21.4
Branch type MPKI
BRANCH_DIRECT_JUMP: 0.18
BRANCH_INDIRECT: 0.561
BRANCH_CONDITIONAL: 13.8
BRANCH_DIRECT_CALL: 0.00256
BRANCH_INDIRECT_CALL: 0.612
BRANCH_RETURN: 2.31

LLC TOTAL        ACCESS:     878286 HIT:     810648 MISS:      67638
LLC LOAD         ACCESS:     610627 HIT:     607855 MISS:       2772
LLC RFO          ACCESS:      60759 HIT:       7263 MISS:      53496
LLC PREFETCH     ACCESS:      98175 HIT:      91026 MISS:       7149
LLC WRITE        ACCESS:      83941 HIT:      81350 MISS:       2591
LLC TRANSLATION  ACCESS:      24784 HIT:      23154 MISS:       1630
LLC PREFETCH REQUESTED:          0 ISSUED:          0 USEFUL:          0 USELESS:          0
LLC AVERAGE MISS LATENCY: 438.9 cycles
cpu0_DTLB TOTAL        ACCESS:    6616400 HIT:    5601868 MISS:    1014532
cpu0_DTLB LOAD         ACCESS:    6616400 HIT:    5601868 MISS:    1014532
cpu0_DTLB RFO          ACCESS:          0 HIT:          0 MISS:          0
cpu0_DTLB PREFETCH     ACCESS:          0 HIT:          0 MISS:          0
cpu0_DTLB WRITE        ACCESS:          0 HIT:          0 MISS:          0
cpu0_DTLB TRANSLATION  ACCESS:          0 HIT:          0 MISS:          0
cpu0_DTLB PREFETCH REQUESTED:          0 ISSUED:          0 USEFUL:          0 USELESS:          0
cpu0_DTLB AVERAGE MISS LATENCY: 5.28 cycles
cpu0_ITLB TOTAL        ACCESS:    1456366 HIT:    1418453 MISS:      37913
cpu0_ITLB LOAD         ACCESS:    1456366 HIT:    1418453 MISS:      37913
cpu0_ITLB RFO          ACCESS:          0 HIT:          0 MISS:          0
cpu0_ITLB PREFETCH     ACCESS:          0 HIT:          0 MISS:          0
cpu0_ITLB WRITE        ACCESS:          0 HIT:          0 MISS:          0
cpu0_ITLB TRANSLATION  ACCESS:          0 HIT:          0 MISS:          0
cpu0_ITLB PREFETCH REQUESTED:          0 ISSUED:          0 USEFUL:          0 USELESS:          0
cpu0_ITLB AVERAGE MISS LATENCY: 3.264 cycles
cpu0_L1D TOTAL        ACCESS:   11993114 HIT:    8526118 MISS:    3466996
cpu0_L1D LOAD         ACCESS:    5251335 HIT:    3088116 MISS:    2163219
cpu0_L1D RFO          ACCESS:          0 HIT:          0 MISS:          0
cpu0_L1D PREFETCH     ACCESS:    3894882 HIT:    2898956 MISS:     995926
cpu0_L1D WRITE        ACCESS:    2809324 HIT:    2538052 MISS:     271272
cpu0_L1D TRANSLATION  ACCESS:      37573 HIT:        994 MISS:      36579
cpu0_L1D PREFETCH REQUESTED:    5866730 ISSUED:    3894881 USEFUL:      66153 USELESS:     160551
cpu0_L1D AVERAGE MISS LATENCY: 17.31 cycles
cpu0_L1I TOTAL        ACCESS:    1588675 HIT:    1444459 MISS:     144216
cpu0_L1I LOAD         ACCESS:    1588675 HIT:    1444459 MISS:     144216
cpu0_L1I RFO          ACCESS:          0 HIT:          0 MISS:          0
cpu0_L1I PREFETCH     ACCESS:          0 HIT:          0 MISS:          0
cpu0_L1I WRITE        ACCESS:          0 HIT:          0 MISS:          0
cpu0_L1I TRANSLATION  ACCESS:          0 HIT:          0 MISS:          0
cpu0_L1I PREFETCH REQUESTED:          0 ISSUED:          0 USEFUL:          0 USELESS:          0
cpu0_L1I AVERAGE MISS LATENCY: 9.027 cycles
cpu0_L2C TOTAL        ACCESS:    2071243 HIT:    1238049 MISS:     833194
cpu0_L2C LOAD         ACCESS:    1369850 HIT:     748900 MISS:     620950
cpu0_L2C RFO          ACCESS:      70763 HIT:       9951 MISS:      60812
cpu0_L2C PREFETCH     ACCESS:     479072 HIT:     352444 MISS:     126628
cpu0_L2C WRITE        ACCESS:     115000 HIT:     114980 MISS:         20
cpu0_L2C TRANSLATION  ACCESS:      36558 HIT:      11774 MISS:      24784
cpu0_L2C PREFETCH REQUESTED:     252594 ISSUED:     252443 USEFUL:      14197 USELESS:       3569
cpu0_L2C AVERAGE MISS LATENCY: 54.6 cycles
cpu0_STLB TOTAL        ACCESS:     621129 HIT:     583740 MISS:      37389
cpu0_STLB LOAD         ACCESS:     621129 HIT:     583740 MISS:      37389
cpu0_STLB RFO          ACCESS:          0 HIT:          0 MISS:          0
cpu0_STLB PREFETCH     ACCESS:          0 HIT:          0 MISS:          0
cpu0_STLB WRITE        ACCESS:          0 HIT:          0 MISS:          0
cpu0_STLB TRANSLATION  ACCESS:          0 HIT:          0 MISS:          0
cpu0_STLB PREFETCH REQUESTED:          0 ISSUED:          0 USEFUL:          0 USELESS:          0
cpu0_STLB AVERAGE MISS LATENCY: 46.87 cycles

DRAM Statistics

Channel 0 RQ ROW_BUFFER_HIT:      38447
  ROW_BUFFER_MISS:      26593
 AVG DBUS CONGESTED CYCLE: 3.976
WQ ROW_BUFFER_HIT: Channel 0 
  ROW_BUFFER_MISS:       3108
  FULL:      40887
