WARNING: physical memory size is smaller than virtual memory size.

*** ChampSim Multicore Out-of-Order Simulator ***
Warmup Instructions: 25000000
Simulation Instructions: 25000000
Number of CPUs: 1
Page size: 4096

Off-chip DRAM Size: 4 GiB Channels: 1 Width: 64-bit Data Race: 800 MT/s
Heartbeat CPU 0 instructions: 10000002 cycles: 2500261 heartbeat IPC: 4 cumulative IPC: 4 (Simulation time: 00 hr 00 min 41 sec)
Heartbeat CPU 0 instructions: 20000002 cycles: 5000261 heartbeat IPC: 4 cumulative IPC: 4 (Simulation time: 00 hr 01 min 19 sec)
Warmup finished CPU 0 instructions: 25000002 cycles: 6254720 cumulative IPC: 3.997 (Simulation time: 00 hr 01 min 39 sec)
Warmup complete CPU 0 instructions: 25000002 cycles: 6254720 cumulative IPC: 3.997 (Simulation time: 00 hr 01 min 39 sec)
Heartbeat CPU 0 instructions: 30000001 cycles: 9820063 heartbeat IPC: 2.075 cumulative IPC: 1.402 (Simulation time: 00 hr 02 min 15 sec)
Heartbeat CPU 0 instructions: 40000003 cycles: 16635422 heartbeat IPC: 1.467 cumulative IPC: 1.445 (Simulation time: 00 hr 03 min 26 sec)
Heartbeat CPU 0 instructions: 50000002 cycles: 23476394 heartbeat IPC: 1.462 cumulative IPC: 1.452 (Simulation time: 00 hr 04 min 38 sec)
Simulation finished CPU 0 instructions: 25000000 cycles: 17221675 cumulative IPC: 1.452 (Simulation time: 00 hr 04 min 38 sec)
Simulation complete CPU 0 instructions: 25000000 cycles: 17221675 cumulative IPC: 1.452 (Simulation time: 00 hr 04 min 38 sec)

ChampSim completed all CPUs

=== Simulation ===
CPU 0 runs ./traces/623.xalancbmk_s-700B.champsimtrace.xz
Region of Interest Statistics

CPU 0 cumulative IPC: 1.452 instructions: 25000000 cycles: 17221675
CPU 0 Branch Prediction Accuracy: 93.12% MPKI: 17.91 Average ROB Occupancy at Mispredict: 20.72
Branch type MPKI
BRANCH_DIRECT_JUMP: 0.182
BRANCH_INDIRECT: 0.594
BRANCH_CONDITIONAL: 14.2
BRANCH_DIRECT_CALL: 0
BRANCH_INDIRECT_CALL: 0.61
BRANCH_RETURN: 2.37

LLC TOTAL        ACCESS:     776420 HIT:     722493 MISS:      53927
LLC LOAD         ACCESS:     543895 HIT:     542206 MISS:       1689
LLC RFO          ACCESS:      48949 HIT:       5435 MISS:      43514
LLC PREFETCH     ACCESS:      95733 HIT:      89280 MISS:       6453
LLC WRITE        ACCESS:      67996 HIT:      66297 MISS:       1699
LLC TRANSLATION  ACCESS:      19847 HIT:      19275 MISS:        572
LLC PREFETCH REQUESTED:          0 ISSUED:          0 USEFUL:          0 USELESS:          0
LLC AVERAGE MISS LATENCY: 407.4 cycles
cpu0_DTLB TOTAL        ACCESS:    6802486 HIT:    5920527 MISS:     881959
cpu0_DTLB LOAD         ACCESS:    6802486 HIT:    5920527 MISS:     881959
cpu0_DTLB RFO          ACCESS:          0 HIT:          0 MISS:          0
cpu0_DTLB PREFETCH     ACCESS:          0 HIT:          0 MISS:          0
cpu0_DTLB WRITE        ACCESS:          0 HIT:          0 MISS:          0
cpu0_DTLB TRANSLATION  ACCESS:          0 HIT:          0 MISS:          0
cpu0_DTLB PREFETCH REQUESTED:          0 ISSUED:          0 USEFUL:          0 USELESS:          0
cpu0_DTLB AVERAGE MISS LATENCY: 4.976 cycles
cpu0_ITLB TOTAL        ACCESS:    1519547 HIT:    1481148 MISS:      38399
cpu0_ITLB LOAD         ACCESS:    1519547 HIT:    1481148 MISS:      38399
cpu0_ITLB RFO          ACCESS:          0 HIT:          0 MISS:          0
cpu0_ITLB PREFETCH     ACCESS:          0 HIT:          0 MISS:          0
cpu0_ITLB WRITE        ACCESS:          0 HIT:          0 MISS:          0
cpu0_ITLB TRANSLATION  ACCESS:          0 HIT:          0 MISS:          0
cpu0_ITLB PREFETCH REQUESTED:          0 ISSUED:          0 USEFUL:          0 USELESS:          0
cpu0_ITLB AVERAGE MISS LATENCY: 2.632 cycles
cpu0_L1D TOTAL        ACCESS:   12534581 HIT:    8497186 MISS:    4037395
cpu0_L1D LOAD         ACCESS:    5417449 HIT:    3058404 MISS:    2359045
cpu0_L1D RFO          ACCESS:          0 HIT:          0 MISS:          0
cpu0_L1D PREFETCH     ACCESS:    4307767 HIT:    2897354 MISS:    1410413
cpu0_L1D WRITE        ACCESS:    2777078 HIT:    2540615 MISS:     236463
cpu0_L1D TRANSLATION  ACCESS:      32287 HIT:        813 MISS:      31474
cpu0_L1D PREFETCH REQUESTED:    5906346 ISSUED:    4307767 USEFUL:      80248 USELESS:     163104
cpu0_L1D AVERAGE MISS LATENCY: 12.06 cycles
cpu0_L1I TOTAL        ACCESS:    1659464 HIT:    1508003 MISS:     151461
cpu0_L1I LOAD         ACCESS:    1659464 HIT:    1508003 MISS:     151461
cpu0_L1I RFO          ACCESS:          0 HIT:          0 MISS:          0
cpu0_L1I PREFETCH     ACCESS:          0 HIT:          0 MISS:          0
cpu0_L1I WRITE        ACCESS:          0 HIT:          0 MISS:          0
cpu0_L1I TRANSLATION  ACCESS:          0 HIT:          0 MISS:          0
cpu0_L1I PREFETCH REQUESTED:          0 ISSUED:          0 USEFUL:          0 USELESS:          0
cpu0_L1I AVERAGE MISS LATENCY: 8.389 cycles
cpu0_L2C TOTAL        ACCESS:    2066028 HIT:    1299675 MISS:     766353
cpu0_L2C LOAD         ACCESS:    1252126 HIT:     692453 MISS:     559673
cpu0_L2C RFO          ACCESS:      61806 HIT:      12823 MISS:      48983
cpu0_L2C PREFETCH     ACCESS:     613781 HIT:     475948 MISS:     137833
cpu0_L2C WRITE        ACCESS:     106841 HIT:     106824 MISS:         17
cpu0_L2C TRANSLATION  ACCESS:      31474 HIT:      11627 MISS:      19847
cpu0_L2C PREFETCH REQUESTED:     370486 ISSUED:     370463 USEFUL:      19908 USELESS:       3345
cpu0_L2C AVERAGE MISS LATENCY: 46.92 cycles
cpu0_STLB TOTAL        ACCESS:     545873 HIT:     513636 MISS:      32237
cpu0_STLB LOAD         ACCESS:     545873 HIT:     513636 MISS:      32237
cpu0_STLB RFO          ACCESS:          0 HIT:          0 MISS:          0
cpu0_STLB PREFETCH     ACCESS:          0 HIT:          0 MISS:          0
cpu0_STLB WRITE        ACCESS:          0 HIT:          0 MISS:          0
cpu0_STLB TRANSLATION  ACCESS:          0 HIT:          0 MISS:          0
cpu0_STLB PREFETCH REQUESTED:          0 ISSUED:          0 USEFUL:          0 USELESS:          0
cpu0_STLB AVERAGE MISS LATENCY: 37.73 cycles

DRAM Statistics

Channel 0 RQ ROW_BUFFER_HIT:      25756
  ROW_BUFFER_MISS:      26467
 AVG DBUS CONGESTED CYCLE: 3.972
WQ ROW_BUFFER_HIT: Channel 0 
  ROW_BUFFER_MISS:       2682
  FULL:      40366
