WARNING: physical memory size is smaller than virtual memory size.

*** ChampSim Multicore Out-of-Order Simulator ***
Warmup Instructions: 25000000
Simulation Instructions: 25000000
Number of CPUs: 1
Page size: 4096

Off-chip DRAM Size: 4 GiB Channels: 1 Width: 64-bit Data Race: 800 MT/s
Heartbeat CPU 0 instructions: 10000003 cycles: 2500088 heartbeat IPC: 4 cumulative IPC: 4 (Simulation time: 00 hr 00 min 44 sec)
Heartbeat CPU 0 instructions: 20000003 cycles: 5000088 heartbeat IPC: 4 cumulative IPC: 4 (Simulation time: 00 hr 01 min 28 sec)
Warmup finished CPU 0 instructions: 25000003 cycles: 6250089 cumulative IPC: 4 (Simulation time: 00 hr 01 min 49 sec)
Warmup complete CPU 0 instructions: 25000003 cycles: 6250089 cumulative IPC: 4 (Simulation time: 00 hr 01 min 49 sec)
Heartbeat CPU 0 instructions: 30000000 cycles: 9824156 heartbeat IPC: 2.073 cumulative IPC: 1.399 (Simulation time: 00 hr 02 min 26 sec)
Heartbeat CPU 0 instructions: 40000002 cycles: 18601814 heartbeat IPC: 1.139 cumulative IPC: 1.214 (Simulation time: 00 hr 03 min 50 sec)
Heartbeat CPU 0 instructions: 50000000 cycles: 27580740 heartbeat IPC: 1.114 cumulative IPC: 1.172 (Simulation time: 00 hr 05 min 15 sec)
Simulation finished CPU 0 instructions: 25000001 cycles: 21330653 cumulative IPC: 1.172 (Simulation time: 00 hr 05 min 15 sec)
Simulation complete CPU 0 instructions: 25000001 cycles: 21330653 cumulative IPC: 1.172 (Simulation time: 00 hr 05 min 15 sec)

ChampSim completed all CPUs

=== Simulation ===
CPU 0 runs ./traces/623.xalancbmk_s-202B.champsimtrace.xz
Region of Interest Statistics

CPU 0 cumulative IPC: 1.172 instructions: 25000001 cycles: 21330653
CPU 0 Branch Prediction Accuracy: 95.19% MPKI: 13.3 Average ROB Occupancy at Mispredict: 44.75
Branch type MPKI
BRANCH_DIRECT_JUMP: 0
BRANCH_INDIRECT: 0
BRANCH_CONDITIONAL: 13.3
BRANCH_DIRECT_CALL: 0
BRANCH_INDIRECT_CALL: 0
BRANCH_RETURN: 0

LLC TOTAL        ACCESS:     673765 HIT:     353819 MISS:     319946
LLC LOAD         ACCESS:      85327 HIT:      46231 MISS:      39096
LLC RFO          ACCESS:          0 HIT:          0 MISS:          0
LLC PREFETCH     ACCESS:     588408 HIT:     307588 MISS:     280820
LLC WRITE        ACCESS:          0 HIT:          0 MISS:          0
LLC TRANSLATION  ACCESS:         30 HIT:          0 MISS:         30
LLC PREFETCH REQUESTED:          0 ISSUED:          0 USEFUL:          0 USELESS:          0
LLC AVERAGE MISS LATENCY: 289.3 cycles
cpu0_DTLB TOTAL        ACCESS:    5681056 HIT:    5634448 MISS:      46608
cpu0_DTLB LOAD         ACCESS:    5681056 HIT:    5634448 MISS:      46608
cpu0_DTLB RFO          ACCESS:          0 HIT:          0 MISS:          0
cpu0_DTLB PREFETCH     ACCESS:          0 HIT:          0 MISS:          0
cpu0_DTLB WRITE        ACCESS:          0 HIT:          0 MISS:          0
cpu0_DTLB TRANSLATION  ACCESS:          0 HIT:          0 MISS:          0
cpu0_DTLB PREFETCH REQUESTED:          0 ISSUED:          0 USEFUL:          0 USELESS:          0
cpu0_DTLB AVERAGE MISS LATENCY: 0.9589 cycles
cpu0_ITLB TOTAL        ACCESS:          0 HIT:          0 MISS:          0
cpu0_ITLB LOAD         ACCESS:          0 HIT:          0 MISS:          0
cpu0_ITLB RFO          ACCESS:          0 HIT:          0 MISS:          0
cpu0_ITLB PREFETCH     ACCESS:          0 HIT:          0 MISS:          0
cpu0_ITLB WRITE        ACCESS:          0 HIT:          0 MISS:          0
cpu0_ITLB TRANSLATION  ACCESS:          0 HIT:          0 MISS:          0
cpu0_ITLB PREFETCH REQUESTED:          0 ISSUED:          0 USEFUL:          0 USELESS:          0
cpu0_ITLB AVERAGE MISS LATENCY: -nan cycles
cpu0_L1D TOTAL        ACCESS:   12113840 HIT:    9457139 MISS:    2656701
cpu0_L1D LOAD         ACCESS:    6743270 HIT:    5125539 MISS:    1617731
cpu0_L1D RFO          ACCESS:          0 HIT:          0 MISS:          0
cpu0_L1D PREFETCH     ACCESS:    4926836 HIT:    3887897 MISS:    1038939
cpu0_L1D WRITE        ACCESS:     443625 HIT:     443625 MISS:          0
cpu0_L1D TRANSLATION  ACCESS:        109 HIT:         78 MISS:         31
cpu0_L1D PREFETCH REQUESTED:    6743303 ISSUED:    4926833 USEFUL:     114206 USELESS:      51418
cpu0_L1D AVERAGE MISS LATENCY: 11.34 cycles
cpu0_L1I TOTAL        ACCESS:          0 HIT:          0 MISS:          0
cpu0_L1I LOAD         ACCESS:          0 HIT:          0 MISS:          0
cpu0_L1I RFO          ACCESS:          0 HIT:          0 MISS:          0
cpu0_L1I PREFETCH     ACCESS:          0 HIT:          0 MISS:          0
cpu0_L1I WRITE        ACCESS:          0 HIT:          0 MISS:          0
cpu0_L1I TRANSLATION  ACCESS:          0 HIT:          0 MISS:          0
cpu0_L1I PREFETCH REQUESTED:          0 ISSUED:          0 USEFUL:          0 USELESS:          0
cpu0_L1I AVERAGE MISS LATENCY: -nan cycles
cpu0_L2C TOTAL        ACCESS:    1621850 HIT:     752027 MISS:     869823
cpu0_L2C LOAD         ACCESS:     514182 HIT:     362269 MISS:     151913
cpu0_L2C RFO          ACCESS:          0 HIT:          0 MISS:          0
cpu0_L2C PREFETCH     ACCESS:    1107637 HIT:     389757 MISS:     717880
cpu0_L2C WRITE        ACCESS:          0 HIT:          0 MISS:          0
cpu0_L2C TRANSLATION  ACCESS:         31 HIT:          1 MISS:         30
cpu0_L2C PREFETCH REQUESTED:     941931 ISSUED:     941931 USEFUL:     471391 USELESS:       6440
cpu0_L2C AVERAGE MISS LATENCY: 105.1 cycles
cpu0_STLB TOTAL        ACCESS:      10922 HIT:      10813 MISS:        109
cpu0_STLB LOAD         ACCESS:      10922 HIT:      10813 MISS:        109
cpu0_STLB RFO          ACCESS:          0 HIT:          0 MISS:          0
cpu0_STLB PREFETCH     ACCESS:          0 HIT:          0 MISS:          0
cpu0_STLB WRITE        ACCESS:          0 HIT:          0 MISS:          0
cpu0_STLB TRANSLATION  ACCESS:          0 HIT:          0 MISS:          0
cpu0_STLB PREFETCH REQUESTED:          0 ISSUED:          0 USEFUL:          0 USELESS:          0
cpu0_STLB AVERAGE MISS LATENCY: 295.2 cycles

DRAM Statistics

Channel 0 RQ ROW_BUFFER_HIT:     301779
  ROW_BUFFER_MISS:      17715
 AVG DBUS CONGESTED CYCLE: 3.896
WQ ROW_BUFFER_HIT: Channel 0 
  ROW_BUFFER_MISS:          0
  FULL:          0
