WARNING: physical memory size is smaller than virtual memory size.

*** ChampSim Multicore Out-of-Order Simulator ***
Warmup Instructions: 25000000
Simulation Instructions: 25000000
Number of CPUs: 1
Page size: 4096

Off-chip DRAM Size: 4 GiB Channels: 1 Width: 64-bit Data Race: 800 MT/s
Heartbeat CPU 0 instructions: 10000002 cycles: 2511678 heartbeat IPC: 3.981 cumulative IPC: 3.981 (Simulation time: 00 hr 00 min 41 sec)
Heartbeat CPU 0 instructions: 20000000 cycles: 5012358 heartbeat IPC: 3.999 cumulative IPC: 3.99 (Simulation time: 00 hr 01 min 24 sec)
Warmup finished CPU 0 instructions: 25000000 cycles: 6262689 cumulative IPC: 3.992 (Simulation time: 00 hr 01 min 45 sec)
Warmup complete CPU 0 instructions: 25000000 cycles: 6262689 cumulative IPC: 3.992 (Simulation time: 00 hr 01 min 45 sec)
Heartbeat CPU 0 instructions: 30000003 cycles: 7992732 heartbeat IPC: 3.355 cumulative IPC: 2.89 (Simulation time: 00 hr 02 min 14 sec)
Heartbeat CPU 0 instructions: 40000003 cycles: 11454865 heartbeat IPC: 2.888 cumulative IPC: 2.889 (Simulation time: 00 hr 03 min 10 sec)
Heartbeat CPU 0 instructions: 50000002 cycles: 14912019 heartbeat IPC: 2.893 cumulative IPC: 2.89 (Simulation time: 00 hr 04 min 06 sec)
Simulation finished CPU 0 instructions: 25000002 cycles: 8649331 cumulative IPC: 2.89 (Simulation time: 00 hr 04 min 06 sec)
Simulation complete CPU 0 instructions: 25000002 cycles: 8649331 cumulative IPC: 2.89 (Simulation time: 00 hr 04 min 06 sec)

ChampSim completed all CPUs

=== Simulation ===
CPU 0 runs ./traces/625.x264_s-20B.champsimtrace.xz
Region of Interest Statistics

CPU 0 cumulative IPC: 2.89 instructions: 25000002 cycles: 8649331
CPU 0 Branch Prediction Accuracy: 92.14% MPKI: 3.331 Average ROB Occupancy at Mispredict: 127.3
Branch type MPKI
BRANCH_DIRECT_JUMP: 0.0004
BRANCH_INDIRECT: 0.00028
BRANCH_CONDITIONAL: 3.22
BRANCH_DIRECT_CALL: 4e-05
BRANCH_INDIRECT_CALL: 0.00696
BRANCH_RETURN: 0.104

LLC TOTAL        ACCESS:      56393 HIT:      19880 MISS:      36513
LLC LOAD         ACCESS:      12539 HIT:       5900 MISS:       6639
LLC RFO          ACCESS:       9417 HIT:        392 MISS:       9025
LLC PREFETCH     ACCESS:      22651 HIT:       1964 MISS:      20687
LLC WRITE        ACCESS:      11164 HIT:      11058 MISS:        106
LLC TRANSLATION  ACCESS:        622 HIT:        566 MISS:         56
LLC PREFETCH REQUESTED:          0 ISSUED:          0 USEFUL:          0 USELESS:          0
LLC AVERAGE MISS LATENCY: 443.9 cycles
cpu0_DTLB TOTAL        ACCESS:    4293542 HIT:    4124867 MISS:     168675
cpu0_DTLB LOAD         ACCESS:    4293542 HIT:    4124867 MISS:     168675
cpu0_DTLB RFO          ACCESS:          0 HIT:          0 MISS:          0
cpu0_DTLB PREFETCH     ACCESS:          0 HIT:          0 MISS:          0
cpu0_DTLB WRITE        ACCESS:          0 HIT:          0 MISS:          0
cpu0_DTLB TRANSLATION  ACCESS:          0 HIT:          0 MISS:          0
cpu0_DTLB PREFETCH REQUESTED:          0 ISSUED:          0 USEFUL:          0 USELESS:          0
cpu0_DTLB AVERAGE MISS LATENCY: 3.973 cycles
cpu0_ITLB TOTAL        ACCESS:     565067 HIT:     565067 MISS:          0
cpu0_ITLB LOAD         ACCESS:     565067 HIT:     565067 MISS:          0
cpu0_ITLB RFO          ACCESS:          0 HIT:          0 MISS:          0
cpu0_ITLB PREFETCH     ACCESS:          0 HIT:          0 MISS:          0
cpu0_ITLB WRITE        ACCESS:          0 HIT:          0 MISS:          0
cpu0_ITLB TRANSLATION  ACCESS:          0 HIT:          0 MISS:          0
cpu0_ITLB PREFETCH REQUESTED:          0 ISSUED:          0 USEFUL:          0 USELESS:          0
cpu0_ITLB AVERAGE MISS LATENCY: -nan cycles
cpu0_L1D TOTAL        ACCESS:    7824175 HIT:    7074520 MISS:     749655
cpu0_L1D LOAD         ACCESS:    3165924 HIT:    2795721 MISS:     370203
cpu0_L1D RFO          ACCESS:          0 HIT:          0 MISS:          0
cpu0_L1D PREFETCH     ACCESS:    2116402 HIT:    1855642 MISS:     260760
cpu0_L1D WRITE        ACCESS:    2541057 HIT:    2423118 MISS:     117939
cpu0_L1D TRANSLATION  ACCESS:        792 HIT:         39 MISS:        753
cpu0_L1D PREFETCH REQUESTED:    3225605 ISSUED:    2116411 USEFUL:      16614 USELESS:      75665
cpu0_L1D AVERAGE MISS LATENCY: 23.7 cycles
cpu0_L1I TOTAL        ACCESS:     681548 HIT:     599123 MISS:      82425
cpu0_L1I LOAD         ACCESS:     681548 HIT:     599123 MISS:      82425
cpu0_L1I RFO          ACCESS:          0 HIT:          0 MISS:          0
cpu0_L1I PREFETCH     ACCESS:          0 HIT:          0 MISS:          0
cpu0_L1I WRITE        ACCESS:          0 HIT:          0 MISS:          0
cpu0_L1I TRANSLATION  ACCESS:          0 HIT:          0 MISS:          0
cpu0_L1I PREFETCH REQUESTED:          0 ISSUED:          0 USEFUL:          0 USELESS:          0
cpu0_L1I AVERAGE MISS LATENCY: 7.089 cycles
cpu0_L2C TOTAL        ACCESS:     417173 HIT:     370389 MISS:      46784
cpu0_L2C LOAD         ACCESS:     186308 HIT:     173743 MISS:      12565
cpu0_L2C RFO          ACCESS:      58602 HIT:      49185 MISS:       9417
cpu0_L2C PREFETCH     ACCESS:     100853 HIT:      76819 MISS:      24034
cpu0_L2C WRITE        ACCESS:      70672 HIT:      70526 MISS:        146
cpu0_L2C TRANSLATION  ACCESS:        738 HIT:        116 MISS:        622
cpu0_L2C PREFETCH REQUESTED:       8581 ISSUED:       8581 USEFUL:       1707 USELESS:        413
cpu0_L2C AVERAGE MISS LATENCY: 362.2 cycles
cpu0_STLB TOTAL        ACCESS:      86075 HIT:      85283 MISS:        792
cpu0_STLB LOAD         ACCESS:      86075 HIT:      85283 MISS:        792
cpu0_STLB RFO          ACCESS:          0 HIT:          0 MISS:          0
cpu0_STLB PREFETCH     ACCESS:          0 HIT:          0 MISS:          0
cpu0_STLB WRITE        ACCESS:          0 HIT:          0 MISS:          0
cpu0_STLB TRANSLATION  ACCESS:          0 HIT:          0 MISS:          0
cpu0_STLB PREFETCH REQUESTED:          0 ISSUED:          0 USEFUL:          0 USELESS:          0
cpu0_STLB AVERAGE MISS LATENCY: 289.8 cycles

DRAM Statistics

Channel 0 RQ ROW_BUFFER_HIT:      15283
  ROW_BUFFER_MISS:      20275
 AVG DBUS CONGESTED CYCLE: 3.921
WQ ROW_BUFFER_HIT: Channel 0 
  ROW_BUFFER_MISS:        694
  FULL:       7881
