WARNING: physical memory size is smaller than virtual memory size.

*** ChampSim Multicore Out-of-Order Simulator ***
Warmup Instructions: 25000000
Simulation Instructions: 25000000
Number of CPUs: 1
Page size: 4096

Off-chip DRAM Size: 4 GiB Channels: 1 Width: 64-bit Data Race: 800 MT/s
Heartbeat CPU 0 instructions: 10000002 cycles: 2558177 heartbeat IPC: 3.909 cumulative IPC: 3.909 (Simulation time: 00 hr 00 min 35 sec)
Heartbeat CPU 0 instructions: 20000003 cycles: 5121610 heartbeat IPC: 3.901 cumulative IPC: 3.905 (Simulation time: 00 hr 01 min 11 sec)
Warmup finished CPU 0 instructions: 25000001 cycles: 6398074 cumulative IPC: 3.907 (Simulation time: 00 hr 01 min 29 sec)
Warmup complete CPU 0 instructions: 25000001 cycles: 6398074 cumulative IPC: 3.907 (Simulation time: 00 hr 01 min 29 sec)
Heartbeat CPU 0 instructions: 30000001 cycles: 10287141 heartbeat IPC: 1.936 cumulative IPC: 1.286 (Simulation time: 00 hr 02 min 09 sec)
Heartbeat CPU 0 instructions: 40000000 cycles: 16715683 heartbeat IPC: 1.556 cumulative IPC: 1.454 (Simulation time: 00 hr 03 min 18 sec)
Heartbeat CPU 0 instructions: 50000003 cycles: 23598986 heartbeat IPC: 1.453 cumulative IPC: 1.453 (Simulation time: 00 hr 04 min 31 sec)
Simulation finished CPU 0 instructions: 25000002 cycles: 17200913 cumulative IPC: 1.453 (Simulation time: 00 hr 04 min 31 sec)
Simulation complete CPU 0 instructions: 25000002 cycles: 17200913 cumulative IPC: 1.453 (Simulation time: 00 hr 04 min 31 sec)

ChampSim completed all CPUs

=== Simulation ===
CPU 0 runs ./traces/627.cam4_s-490B.champsimtrace.xz
Region of Interest Statistics

CPU 0 cumulative IPC: 1.453 instructions: 25000002 cycles: 17200913
CPU 0 Branch Prediction Accuracy: 90.28% MPKI: 9.288 Average ROB Occupancy at Mispredict: 33.97
Branch type MPKI
BRANCH_DIRECT_JUMP: 0.00504
BRANCH_INDIRECT: 0
BRANCH_CONDITIONAL: 9.28
BRANCH_DIRECT_CALL: 0
BRANCH_INDIRECT_CALL: 0
BRANCH_RETURN: 0

LLC TOTAL        ACCESS:     598420 HIT:     478237 MISS:     120183
LLC LOAD         ACCESS:      72585 HIT:      55655 MISS:      16930
LLC RFO          ACCESS:     128228 HIT:      83488 MISS:      44740
LLC PREFETCH     ACCESS:     221843 HIT:     174595 MISS:      47248
LLC WRITE        ACCESS:     175733 HIT:     164499 MISS:      11234
LLC TRANSLATION  ACCESS:         31 HIT:          0 MISS:         31
LLC PREFETCH REQUESTED:          0 ISSUED:          0 USEFUL:          0 USELESS:          0
LLC AVERAGE MISS LATENCY: 813 cycles
cpu0_DTLB TOTAL        ACCESS:    4163611 HIT:    4140776 MISS:      22835
cpu0_DTLB LOAD         ACCESS:    4163611 HIT:    4140776 MISS:      22835
cpu0_DTLB RFO          ACCESS:          0 HIT:          0 MISS:          0
cpu0_DTLB PREFETCH     ACCESS:          0 HIT:          0 MISS:          0
cpu0_DTLB WRITE        ACCESS:          0 HIT:          0 MISS:          0
cpu0_DTLB TRANSLATION  ACCESS:          0 HIT:          0 MISS:          0
cpu0_DTLB PREFETCH REQUESTED:          0 ISSUED:          0 USEFUL:          0 USELESS:          0
cpu0_DTLB AVERAGE MISS LATENCY: 4.62 cycles
cpu0_ITLB TOTAL        ACCESS:       4613 HIT:       4613 MISS:          0
cpu0_ITLB LOAD         ACCESS:       4613 HIT:       4613 MISS:          0
cpu0_ITLB RFO          ACCESS:          0 HIT:          0 MISS:          0
cpu0_ITLB PREFETCH     ACCESS:          0 HIT:          0 MISS:          0
cpu0_ITLB WRITE        ACCESS:          0 HIT:          0 MISS:          0
cpu0_ITLB TRANSLATION  ACCESS:          0 HIT:          0 MISS:          0
cpu0_ITLB PREFETCH REQUESTED:          0 ISSUED:          0 USEFUL:          0 USELESS:          0
cpu0_ITLB AVERAGE MISS LATENCY: -nan cycles
cpu0_L1D TOTAL        ACCESS:    7234982 HIT:    5173414 MISS:    2061568
cpu0_L1D LOAD         ACCESS:    3324246 HIT:    2587759 MISS:     736487
cpu0_L1D RFO          ACCESS:          0 HIT:          0 MISS:          0
cpu0_L1D PREFETCH     ACCESS:    2273899 HIT:    1692986 MISS:     580913
cpu0_L1D WRITE        ACCESS:    1636373 HIT:     892269 MISS:     744104
cpu0_L1D TRANSLATION  ACCESS:        464 HIT:        400 MISS:         64
cpu0_L1D PREFETCH REQUESTED:    3968504 ISSUED:    2273896 USEFUL:     158558 USELESS:       3150
cpu0_L1D AVERAGE MISS LATENCY: 42.57 cycles
cpu0_L1I TOTAL        ACCESS:       5713 HIT:       4523 MISS:       1190
cpu0_L1I LOAD         ACCESS:       5713 HIT:       4523 MISS:       1190
cpu0_L1I RFO          ACCESS:          0 HIT:          0 MISS:          0
cpu0_L1I PREFETCH     ACCESS:          0 HIT:          0 MISS:          0
cpu0_L1I WRITE        ACCESS:          0 HIT:          0 MISS:          0
cpu0_L1I TRANSLATION  ACCESS:          0 HIT:          0 MISS:          0
cpu0_L1I PREFETCH REQUESTED:          0 ISSUED:          0 USEFUL:          0 USELESS:          0
cpu0_L1I AVERAGE MISS LATENCY: 227.6 cycles
cpu0_L2C TOTAL        ACCESS:     927607 HIT:     380406 MISS:     547201
cpu0_L2C LOAD         ACCESS:     155902 HIT:      55403 MISS:     100499
cpu0_L2C RFO          ACCESS:     130206 HIT:       1978 MISS:     128228
cpu0_L2C PREFETCH     ACCESS:     454424 HIT:     136549 MISS:     317875
cpu0_L2C WRITE        ACCESS:     187011 HIT:     186443 MISS:        568
cpu0_L2C TRANSLATION  ACCESS:         64 HIT:         33 MISS:         31
cpu0_L2C PREFETCH REQUESTED:     297645 ISSUED:     292703 USEFUL:      85354 USELESS:       9225
cpu0_L2C AVERAGE MISS LATENCY: 187.5 cycles
cpu0_STLB TOTAL        ACCESS:       7775 HIT:       7311 MISS:        464
cpu0_STLB LOAD         ACCESS:       7775 HIT:       7311 MISS:        464
cpu0_STLB RFO          ACCESS:          0 HIT:          0 MISS:          0
cpu0_STLB PREFETCH     ACCESS:          0 HIT:          0 MISS:          0
cpu0_STLB WRITE        ACCESS:          0 HIT:          0 MISS:          0
cpu0_STLB TRANSLATION  ACCESS:          0 HIT:          0 MISS:          0
cpu0_STLB PREFETCH REQUESTED:          0 ISSUED:          0 USEFUL:          0 USELESS:          0
cpu0_STLB AVERAGE MISS LATENCY: 282.2 cycles

DRAM Statistics

Channel 0 RQ ROW_BUFFER_HIT:      34776
  ROW_BUFFER_MISS:      65532
 AVG DBUS CONGESTED CYCLE: 3.943
WQ ROW_BUFFER_HIT: Channel 0 
  ROW_BUFFER_MISS:       3620
  FULL:      59845
