WARNING: physical memory size is smaller than virtual memory size.

*** ChampSim Multicore Out-of-Order Simulator ***
Warmup Instructions: 25000000
Simulation Instructions: 25000000
Number of CPUs: 1
Page size: 4096

Off-chip DRAM Size: 4 GiB Channels: 1 Width: 64-bit Data Race: 800 MT/s
Heartbeat CPU 0 instructions: 10000002 cycles: 2558177 heartbeat IPC: 3.909 cumulative IPC: 3.909 (Simulation time: 00 hr 00 min 43 sec)
Heartbeat CPU 0 instructions: 20000003 cycles: 5121606 heartbeat IPC: 3.901 cumulative IPC: 3.905 (Simulation time: 00 hr 01 min 26 sec)
Warmup finished CPU 0 instructions: 25000001 cycles: 6398075 cumulative IPC: 3.907 (Simulation time: 00 hr 01 min 48 sec)
Warmup complete CPU 0 instructions: 25000001 cycles: 6398075 cumulative IPC: 3.907 (Simulation time: 00 hr 01 min 48 sec)
Heartbeat CPU 0 instructions: 30000001 cycles: 10112324 heartbeat IPC: 2.004 cumulative IPC: 1.346 (Simulation time: 00 hr 02 min 35 sec)
Heartbeat CPU 0 instructions: 40000000 cycles: 16360259 heartbeat IPC: 1.601 cumulative IPC: 1.506 (Simulation time: 00 hr 03 min 57 sec)
Heartbeat CPU 0 instructions: 50000003 cycles: 23166599 heartbeat IPC: 1.469 cumulative IPC: 1.491 (Simulation time: 00 hr 05 min 27 sec)
Simulation finished CPU 0 instructions: 25000002 cycles: 16768525 cumulative IPC: 1.491 (Simulation time: 00 hr 05 min 27 sec)
Simulation complete CPU 0 instructions: 25000002 cycles: 16768525 cumulative IPC: 1.491 (Simulation time: 00 hr 05 min 27 sec)

ChampSim completed all CPUs

=== Simulation ===
CPU 0 runs ./traces/627.cam4_s-490B.champsimtrace.xz
Region of Interest Statistics

CPU 0 cumulative IPC: 1.491 instructions: 25000002 cycles: 16768525
CPU 0 Branch Prediction Accuracy: 90.28% MPKI: 9.288 Average ROB Occupancy at Mispredict: 32.4
Branch type MPKI
BRANCH_DIRECT_JUMP: 0.00504
BRANCH_INDIRECT: 0
BRANCH_CONDITIONAL: 9.28
BRANCH_DIRECT_CALL: 0
BRANCH_INDIRECT_CALL: 0
BRANCH_RETURN: 0

LLC TOTAL        ACCESS:     608117 HIT:     496119 MISS:     111998
LLC LOAD         ACCESS:      73601 HIT:      58675 MISS:      14926
LLC RFO          ACCESS:     128230 HIT:      78607 MISS:      49623
LLC PREFETCH     ACCESS:     229750 HIT:     183333 MISS:      46417
LLC WRITE        ACCESS:     176505 HIT:     175502 MISS:       1003
LLC TRANSLATION  ACCESS:         31 HIT:          2 MISS:         29
LLC PREFETCH REQUESTED:          0 ISSUED:          0 USEFUL:          0 USELESS:          0
LLC AVERAGE MISS LATENCY: 929.2 cycles
cpu0_DTLB TOTAL        ACCESS:    4084558 HIT:    4062018 MISS:      22540
cpu0_DTLB LOAD         ACCESS:    4084558 HIT:    4062018 MISS:      22540
cpu0_DTLB RFO          ACCESS:          0 HIT:          0 MISS:          0
cpu0_DTLB PREFETCH     ACCESS:          0 HIT:          0 MISS:          0
cpu0_DTLB WRITE        ACCESS:          0 HIT:          0 MISS:          0
cpu0_DTLB TRANSLATION  ACCESS:          0 HIT:          0 MISS:          0
cpu0_DTLB PREFETCH REQUESTED:          0 ISSUED:          0 USEFUL:          0 USELESS:          0
cpu0_DTLB AVERAGE MISS LATENCY: 4.839 cycles
cpu0_ITLB TOTAL        ACCESS:       4585 HIT:       4585 MISS:          0
cpu0_ITLB LOAD         ACCESS:       4585 HIT:       4585 MISS:          0
cpu0_ITLB RFO          ACCESS:          0 HIT:          0 MISS:          0
cpu0_ITLB PREFETCH     ACCESS:          0 HIT:          0 MISS:          0
cpu0_ITLB WRITE        ACCESS:          0 HIT:          0 MISS:          0
cpu0_ITLB TRANSLATION  ACCESS:          0 HIT:          0 MISS:          0
cpu0_ITLB PREFETCH REQUESTED:          0 ISSUED:          0 USEFUL:          0 USELESS:          0
cpu0_ITLB AVERAGE MISS LATENCY: -nan cycles
cpu0_L1D TOTAL        ACCESS:    7053963 HIT:    5075971 MISS:    1977992
cpu0_L1D LOAD         ACCESS:    3237012 HIT:    2542469 MISS:     694543
cpu0_L1D RFO          ACCESS:          0 HIT:          0 MISS:          0
cpu0_L1D PREFETCH     ACCESS:    2179806 HIT:    1651201 MISS:     528605
cpu0_L1D WRITE        ACCESS:    1636681 HIT:     881904 MISS:     754777
cpu0_L1D TRANSLATION  ACCESS:        464 HIT:        397 MISS:         67
cpu0_L1D PREFETCH REQUESTED:    4423782 ISSUED:    2179803 USEFUL:     149673 USELESS:       3087
cpu0_L1D AVERAGE MISS LATENCY: 48.06 cycles
cpu0_L1I TOTAL        ACCESS:       5686 HIT:       4516 MISS:       1170
cpu0_L1I LOAD         ACCESS:       5686 HIT:       4516 MISS:       1170
cpu0_L1I RFO          ACCESS:          0 HIT:          0 MISS:          0
cpu0_L1I PREFETCH     ACCESS:          0 HIT:          0 MISS:          0
cpu0_L1I WRITE        ACCESS:          0 HIT:          0 MISS:          0
cpu0_L1I TRANSLATION  ACCESS:          0 HIT:          0 MISS:          0
cpu0_L1I PREFETCH REQUESTED:          0 ISSUED:          0 USEFUL:          0 USELESS:          0
cpu0_L1I AVERAGE MISS LATENCY: 269.1 cycles
cpu0_L2C TOTAL        ACCESS:     959751 HIT:     404200 MISS:     555551
cpu0_L2C LOAD         ACCESS:     164792 HIT:      64053 MISS:     100739
cpu0_L2C RFO          ACCESS:     130208 HIT:       1978 MISS:     128230
cpu0_L2C PREFETCH     ACCESS:     476824 HIT:     150841 MISS:     325983
cpu0_L2C WRITE        ACCESS:     187860 HIT:     187292 MISS:        568
cpu0_L2C TRANSLATION  ACCESS:         67 HIT:         36 MISS:         31
cpu0_L2C PREFETCH REQUESTED:     333582 ISSUED:     324049 USEFUL:      90220 USELESS:       8233
cpu0_L2C AVERAGE MISS LATENCY: 196.5 cycles
cpu0_STLB TOTAL        ACCESS:       7770 HIT:       7306 MISS:        464
cpu0_STLB LOAD         ACCESS:       7770 HIT:       7306 MISS:        464
cpu0_STLB RFO          ACCESS:          0 HIT:          0 MISS:          0
cpu0_STLB PREFETCH     ACCESS:          0 HIT:          0 MISS:          0
cpu0_STLB WRITE        ACCESS:          0 HIT:          0 MISS:          0
cpu0_STLB TRANSLATION  ACCESS:          0 HIT:          0 MISS:          0
cpu0_STLB PREFETCH REQUESTED:          0 ISSUED:          0 USEFUL:          0 USELESS:          0
cpu0_STLB AVERAGE MISS LATENCY: 298.5 cycles

DRAM Statistics

Channel 0 RQ ROW_BUFFER_HIT:      36847
  ROW_BUFFER_MISS:      63101
 AVG DBUS CONGESTED CYCLE: 3.953
WQ ROW_BUFFER_HIT: Channel 0 
  ROW_BUFFER_MISS:       6361
  FULL:      63017
