WARNING: physical memory size is smaller than virtual memory size.

*** ChampSim Multicore Out-of-Order Simulator ***
Warmup Instructions: 25000000
Simulation Instructions: 25000000
Number of CPUs: 1
Page size: 4096

Off-chip DRAM Size: 4 GiB Channels: 1 Width: 64-bit Data Race: 800 MT/s
Heartbeat CPU 0 instructions: 10000002 cycles: 2568882 heartbeat IPC: 3.893 cumulative IPC: 3.893 (Simulation time: 00 hr 00 min 43 sec)
Heartbeat CPU 0 instructions: 20000003 cycles: 5137837 heartbeat IPC: 3.893 cumulative IPC: 3.893 (Simulation time: 00 hr 01 min 25 sec)
Warmup finished CPU 0 instructions: 25000002 cycles: 6422236 cumulative IPC: 3.893 (Simulation time: 00 hr 01 min 47 sec)
Warmup complete CPU 0 instructions: 25000002 cycles: 6422236 cumulative IPC: 3.893 (Simulation time: 00 hr 01 min 47 sec)
Heartbeat CPU 0 instructions: 30000000 cycles: 10108413 heartbeat IPC: 2.012 cumulative IPC: 1.356 (Simulation time: 00 hr 02 min 34 sec)
Heartbeat CPU 0 instructions: 40000002 cycles: 17515309 heartbeat IPC: 1.35 cumulative IPC: 1.352 (Simulation time: 00 hr 04 min 09 sec)
Heartbeat CPU 0 instructions: 50000001 cycles: 24876689 heartbeat IPC: 1.358 cumulative IPC: 1.355 (Simulation time: 00 hr 05 min 45 sec)
Simulation finished CPU 0 instructions: 25000003 cycles: 18454455 cumulative IPC: 1.355 (Simulation time: 00 hr 05 min 45 sec)
Simulation complete CPU 0 instructions: 25000003 cycles: 18454455 cumulative IPC: 1.355 (Simulation time: 00 hr 05 min 45 sec)

ChampSim completed all CPUs

=== Simulation ===
CPU 0 runs ./traces/628.pop2_s-17B.champsimtrace.xz
Region of Interest Statistics

CPU 0 cumulative IPC: 1.355 instructions: 25000003 cycles: 18454455
CPU 0 Branch Prediction Accuracy: 96.47% MPKI: 4.044 Average ROB Occupancy at Mispredict: 141.9
Branch type MPKI
BRANCH_DIRECT_JUMP: 0.0513
BRANCH_INDIRECT: 0.00164
BRANCH_CONDITIONAL: 3.99
BRANCH_DIRECT_CALL: 0
BRANCH_INDIRECT_CALL: 0
BRANCH_RETURN: 0

LLC TOTAL        ACCESS:     468004 HIT:     250820 MISS:     217184
LLC LOAD         ACCESS:      86121 HIT:      52715 MISS:      33406
LLC RFO          ACCESS:      85702 HIT:      53832 MISS:      31870
LLC PREFETCH     ACCESS:     165549 HIT:      54955 MISS:     110594
LLC WRITE        ACCESS:     129181 HIT:      89055 MISS:      40126
LLC TRANSLATION  ACCESS:       1451 HIT:        263 MISS:       1188
LLC PREFETCH REQUESTED:          0 ISSUED:          0 USEFUL:          0 USELESS:          0
LLC AVERAGE MISS LATENCY: 487.5 cycles
cpu0_DTLB TOTAL        ACCESS:    5485110 HIT:    5435321 MISS:      49789
cpu0_DTLB LOAD         ACCESS:    5485110 HIT:    5435321 MISS:      49789
cpu0_DTLB RFO          ACCESS:          0 HIT:          0 MISS:          0
cpu0_DTLB PREFETCH     ACCESS:          0 HIT:          0 MISS:          0
cpu0_DTLB WRITE        ACCESS:          0 HIT:          0 MISS:          0
cpu0_DTLB TRANSLATION  ACCESS:          0 HIT:          0 MISS:          0
cpu0_DTLB PREFETCH REQUESTED:          0 ISSUED:          0 USEFUL:          0 USELESS:          0
cpu0_DTLB AVERAGE MISS LATENCY: 19.56 cycles
cpu0_ITLB TOTAL        ACCESS:      94452 HIT:      90765 MISS:       3687
cpu0_ITLB LOAD         ACCESS:      94452 HIT:      90765 MISS:       3687
cpu0_ITLB RFO          ACCESS:          0 HIT:          0 MISS:          0
cpu0_ITLB PREFETCH     ACCESS:          0 HIT:          0 MISS:          0
cpu0_ITLB WRITE        ACCESS:          0 HIT:          0 MISS:          0
cpu0_ITLB TRANSLATION  ACCESS:          0 HIT:          0 MISS:          0
cpu0_ITLB PREFETCH REQUESTED:          0 ISSUED:          0 USEFUL:          0 USELESS:          0
cpu0_ITLB AVERAGE MISS LATENCY: 1.507 cycles
cpu0_L1D TOTAL        ACCESS:    8980698 HIT:    6601681 MISS:    2379017
cpu0_L1D LOAD         ACCESS:    4560170 HIT:    3581943 MISS:     978227
cpu0_L1D RFO          ACCESS:          0 HIT:          0 MISS:          0
cpu0_L1D PREFETCH     ACCESS:    2528680 HIT:    1752679 MISS:     776001
cpu0_L1D WRITE        ACCESS:    1890166 HIT:    1267000 MISS:     623166
cpu0_L1D TRANSLATION  ACCESS:       1682 HIT:         59 MISS:       1623
cpu0_L1D PREFETCH REQUESTED:    4975475 ISSUED:    2528680 USEFUL:     233518 USELESS:      34991
cpu0_L1D AVERAGE MISS LATENCY: 33.49 cycles
cpu0_L1I TOTAL        ACCESS:     117201 HIT:      59788 MISS:      57413
cpu0_L1I LOAD         ACCESS:     117201 HIT:      59788 MISS:      57413
cpu0_L1I RFO          ACCESS:          0 HIT:          0 MISS:          0
cpu0_L1I PREFETCH     ACCESS:          0 HIT:          0 MISS:          0
cpu0_L1I WRITE        ACCESS:          0 HIT:          0 MISS:          0
cpu0_L1I TRANSLATION  ACCESS:          0 HIT:          0 MISS:          0
cpu0_L1I PREFETCH REQUESTED:          0 ISSUED:          0 USEFUL:          0 USELESS:          0
cpu0_L1I AVERAGE MISS LATENCY: 32.66 cycles
cpu0_L2C TOTAL        ACCESS:    1255640 HIT:     846525 MISS:     409115
cpu0_L2C LOAD         ACCESS:     260611 HIT:     165825 MISS:      94786
cpu0_L2C RFO          ACCESS:     162546 HIT:      76844 MISS:      85702
cpu0_L2C PREFETCH     ACCESS:     594582 HIT:     367498 MISS:     227084
cpu0_L2C WRITE        ACCESS:     236321 HIT:     236229 MISS:         92
cpu0_L2C TRANSLATION  ACCESS:       1580 HIT:        129 MISS:       1451
cpu0_L2C PREFETCH REQUESTED:     326078 ISSUED:     326077 USEFUL:      39584 USELESS:      12794
cpu0_L2C AVERAGE MISS LATENCY: 271.6 cycles
cpu0_STLB TOTAL        ACCESS:      21962 HIT:      20739 MISS:       1223
cpu0_STLB LOAD         ACCESS:      21962 HIT:      20739 MISS:       1223
cpu0_STLB RFO          ACCESS:          0 HIT:          0 MISS:          0
cpu0_STLB PREFETCH     ACCESS:          0 HIT:          0 MISS:          0
cpu0_STLB WRITE        ACCESS:          0 HIT:          0 MISS:          0
cpu0_STLB TRANSLATION  ACCESS:          0 HIT:          0 MISS:          0
cpu0_STLB PREFETCH REQUESTED:          0 ISSUED:          0 USEFUL:          0 USELESS:          0
cpu0_STLB AVERAGE MISS LATENCY: 1001 cycles

DRAM Statistics

Channel 0 RQ ROW_BUFFER_HIT:      65056
  ROW_BUFFER_MISS:     107459
 AVG DBUS CONGESTED CYCLE: 3.928
WQ ROW_BUFFER_HIT: Channel 0 
  ROW_BUFFER_MISS:       5401
  FULL:      55973
