WARNING: physical memory size is smaller than virtual memory size.

*** ChampSim Multicore Out-of-Order Simulator ***
Warmup Instructions: 25000000
Simulation Instructions: 25000000
Number of CPUs: 1
Page size: 4096

Off-chip DRAM Size: 4 GiB Channels: 1 Width: 64-bit Data Race: 800 MT/s
Heartbeat CPU 0 instructions: 10000000 cycles: 3155221 heartbeat IPC: 3.169 cumulative IPC: 3.169 (Simulation time: 00 hr 01 min 04 sec)
Heartbeat CPU 0 instructions: 20000002 cycles: 6311264 heartbeat IPC: 3.169 cumulative IPC: 3.169 (Simulation time: 00 hr 02 min 09 sec)
Warmup finished CPU 0 instructions: 25000001 cycles: 7888673 cumulative IPC: 3.169 (Simulation time: 00 hr 02 min 42 sec)
Warmup complete CPU 0 instructions: 25000001 cycles: 7888673 cumulative IPC: 3.169 (Simulation time: 00 hr 02 min 42 sec)
Heartbeat CPU 0 instructions: 30000002 cycles: 19321492 heartbeat IPC: 0.7686 cumulative IPC: 0.4373 (Simulation time: 00 hr 04 min 59 sec)
Heartbeat CPU 0 instructions: 40000002 cycles: 42207811 heartbeat IPC: 0.4369 cumulative IPC: 0.4371 (Simulation time: 00 hr 09 min 20 sec)
Heartbeat CPU 0 instructions: 50000000 cycles: 65193356 heartbeat IPC: 0.4351 cumulative IPC: 0.4363 (Simulation time: 00 hr 11 min 55 sec)
Simulation finished CPU 0 instructions: 25000003 cycles: 57304685 cumulative IPC: 0.4363 (Simulation time: 00 hr 11 min 55 sec)
Simulation complete CPU 0 instructions: 25000003 cycles: 57304685 cumulative IPC: 0.4363 (Simulation time: 00 hr 11 min 55 sec)

ChampSim completed all CPUs

=== Simulation ===
CPU 0 runs ./traces/649.fotonik3d_s-10881B.champsimtrace.xz
Region of Interest Statistics

CPU 0 cumulative IPC: 0.4363 instructions: 25000003 cycles: 57304685
CPU 0 Branch Prediction Accuracy: 93.33% MPKI: 0.8021 Average ROB Occupancy at Mispredict: 352
Branch type MPKI
BRANCH_DIRECT_JUMP: 0
BRANCH_INDIRECT: 0
BRANCH_CONDITIONAL: 0.802
BRANCH_DIRECT_CALL: 0
BRANCH_INDIRECT_CALL: 0
BRANCH_RETURN: 0

LLC TOTAL        ACCESS:     832862 HIT:     305904 MISS:     526958
LLC LOAD         ACCESS:     278489 HIT:      27428 MISS:     251061
LLC RFO          ACCESS:          0 HIT:          0 MISS:          0
LLC PREFETCH     ACCESS:     299408 HIT:      31038 MISS:     268370
LLC WRITE        ACCESS:     242773 HIT:     239655 MISS:       3118
LLC TRANSLATION  ACCESS:      12192 HIT:       7783 MISS:       4409
LLC PREFETCH REQUESTED:          0 ISSUED:          0 USEFUL:          0 USELESS:          0
LLC AVERAGE MISS LATENCY: 934.5 cycles
cpu0_DTLB TOTAL        ACCESS:    9232614 HIT:    8969160 MISS:     263454
cpu0_DTLB LOAD         ACCESS:    9232614 HIT:    8969160 MISS:     263454
cpu0_DTLB RFO          ACCESS:          0 HIT:          0 MISS:          0
cpu0_DTLB PREFETCH     ACCESS:          0 HIT:          0 MISS:          0
cpu0_DTLB WRITE        ACCESS:          0 HIT:          0 MISS:          0
cpu0_DTLB TRANSLATION  ACCESS:          0 HIT:          0 MISS:          0
cpu0_DTLB PREFETCH REQUESTED:          0 ISSUED:          0 USEFUL:          0 USELESS:          0
cpu0_DTLB AVERAGE MISS LATENCY: 55.27 cycles
cpu0_ITLB TOTAL        ACCESS:          0 HIT:          0 MISS:          0
cpu0_ITLB LOAD         ACCESS:          0 HIT:          0 MISS:          0
cpu0_ITLB RFO          ACCESS:          0 HIT:          0 MISS:          0
cpu0_ITLB PREFETCH     ACCESS:          0 HIT:          0 MISS:          0
cpu0_ITLB WRITE        ACCESS:          0 HIT:          0 MISS:          0
cpu0_ITLB TRANSLATION  ACCESS:          0 HIT:          0 MISS:          0
cpu0_ITLB PREFETCH REQUESTED:          0 ISSUED:          0 USEFUL:          0 USELESS:          0
cpu0_ITLB AVERAGE MISS LATENCY: -nan cycles
cpu0_L1D TOTAL        ACCESS:   12281833 HIT:   10828462 MISS:    1453371
cpu0_L1D LOAD         ACCESS:    8970449 HIT:    8101914 MISS:     868535
cpu0_L1D RFO          ACCESS:          0 HIT:          0 MISS:          0
cpu0_L1D PREFETCH     ACCESS:    1623531 HIT:    1122853 MISS:     500678
cpu0_L1D WRITE        ACCESS:    1602830 HIT:    1602827 MISS:          3
cpu0_L1D TRANSLATION  ACCESS:      85023 HIT:        868 MISS:      84155
cpu0_L1D PREFETCH REQUESTED:   10030697 ISSUED:    1623527 USEFUL:     181899 USELESS:      81555
cpu0_L1D AVERAGE MISS LATENCY: 262.2 cycles
cpu0_L1I TOTAL        ACCESS:          0 HIT:          0 MISS:          0
cpu0_L1I LOAD         ACCESS:          0 HIT:          0 MISS:          0
cpu0_L1I RFO          ACCESS:          0 HIT:          0 MISS:          0
cpu0_L1I PREFETCH     ACCESS:          0 HIT:          0 MISS:          0
cpu0_L1I WRITE        ACCESS:          0 HIT:          0 MISS:          0
cpu0_L1I TRANSLATION  ACCESS:          0 HIT:          0 MISS:          0
cpu0_L1I PREFETCH REQUESTED:          0 ISSUED:          0 USEFUL:          0 USELESS:          0
cpu0_L1I AVERAGE MISS LATENCY: -nan cycles
cpu0_L2C TOTAL        ACCESS:     963821 HIT:     370013 MISS:     593808
cpu0_L2C LOAD         ACCESS:     299136 HIT:      20555 MISS:     278581
cpu0_L2C RFO          ACCESS:          3 HIT:          3 MISS:          0
cpu0_L2C PREFETCH     ACCESS:     337636 HIT:      34601 MISS:     303035
cpu0_L2C WRITE        ACCESS:     242891 HIT:     242891 MISS:          0
cpu0_L2C TRANSLATION  ACCESS:      84155 HIT:      71963 MISS:      12192
cpu0_L2C PREFETCH REQUESTED:      74140 ISSUED:      74140 USEFUL:      35873 USELESS:      16908
cpu0_L2C AVERAGE MISS LATENCY: 847.9 cycles
cpu0_STLB TOTAL        ACCESS:     115092 HIT:      30200 MISS:      84892
cpu0_STLB LOAD         ACCESS:     115092 HIT:      30200 MISS:      84892
cpu0_STLB RFO          ACCESS:          0 HIT:          0 MISS:          0
cpu0_STLB PREFETCH     ACCESS:          0 HIT:          0 MISS:          0
cpu0_STLB WRITE        ACCESS:          0 HIT:          0 MISS:          0
cpu0_STLB TRANSLATION  ACCESS:          0 HIT:          0 MISS:          0
cpu0_STLB PREFETCH REQUESTED:          0 ISSUED:          0 USEFUL:          0 USELESS:          0
cpu0_STLB AVERAGE MISS LATENCY: 251.9 cycles

DRAM Statistics

Channel 0 RQ ROW_BUFFER_HIT:     176518
  ROW_BUFFER_MISS:     347267
 AVG DBUS CONGESTED CYCLE: 3.913
WQ ROW_BUFFER_HIT: Channel 0 
  ROW_BUFFER_MISS:       2218
  FULL:     240078
