WARNING: physical memory size is smaller than virtual memory size.

*** ChampSim Multicore Out-of-Order Simulator ***
Warmup Instructions: 25000000
Simulation Instructions: 25000000
Number of CPUs: 1
Page size: 4096

Off-chip DRAM Size: 4 GiB Channels: 1 Width: 64-bit Data Race: 800 MT/s
Heartbeat CPU 0 instructions: 10000002 cycles: 2500102 heartbeat IPC: 4 cumulative IPC: 4 (Simulation time: 00 hr 00 min 40 sec)
Heartbeat CPU 0 instructions: 20000002 cycles: 5000102 heartbeat IPC: 4 cumulative IPC: 4 (Simulation time: 00 hr 01 min 21 sec)
Warmup finished CPU 0 instructions: 25000002 cycles: 6250103 cumulative IPC: 4 (Simulation time: 00 hr 01 min 41 sec)
Warmup complete CPU 0 instructions: 25000002 cycles: 6250103 cumulative IPC: 4 (Simulation time: 00 hr 01 min 41 sec)
Heartbeat CPU 0 instructions: 30000003 cycles: 12903402 heartbeat IPC: 1.265 cumulative IPC: 0.7515 (Simulation time: 00 hr 02 min 54 sec)
Heartbeat CPU 0 instructions: 40000001 cycles: 25542353 heartbeat IPC: 0.7912 cumulative IPC: 0.7775 (Simulation time: 00 hr 05 min 12 sec)
Heartbeat CPU 0 instructions: 50000001 cycles: 38163413 heartbeat IPC: 0.7923 cumulative IPC: 0.7834 (Simulation time: 00 hr 07 min 24 sec)
Simulation finished CPU 0 instructions: 25000003 cycles: 31913312 cumulative IPC: 0.7834 (Simulation time: 00 hr 07 min 24 sec)
Simulation complete CPU 0 instructions: 25000003 cycles: 31913312 cumulative IPC: 0.7834 (Simulation time: 00 hr 07 min 24 sec)

ChampSim completed all CPUs

=== Simulation ===
CPU 0 runs ./traces/649.fotonik3d_s-1176B.champsimtrace.xz
Region of Interest Statistics

CPU 0 cumulative IPC: 0.7834 instructions: 25000003 cycles: 31913312
CPU 0 Branch Prediction Accuracy: 99.97% MPKI: 0.0044 Average ROB Occupancy at Mispredict: 352
Branch type MPKI
BRANCH_DIRECT_JUMP: 0
BRANCH_INDIRECT: 0
BRANCH_CONDITIONAL: 0.0044
BRANCH_DIRECT_CALL: 0
BRANCH_INDIRECT_CALL: 0
BRANCH_RETURN: 0

LLC TOTAL        ACCESS:     552725 HIT:     260778 MISS:     291947
LLC LOAD         ACCESS:      66051 HIT:       3491 MISS:      62560
LLC RFO          ACCESS:        330 HIT:        330 MISS:          0
LLC PREFETCH     ACCESS:     266751 HIT:     107687 MISS:     159064
LLC WRITE        ACCESS:     219447 HIT:     149173 MISS:      70274
LLC TRANSLATION  ACCESS:        146 HIT:         97 MISS:         49
LLC PREFETCH REQUESTED:          0 ISSUED:          0 USEFUL:          0 USELESS:          0
LLC AVERAGE MISS LATENCY: 441.4 cycles
cpu0_DTLB TOTAL        ACCESS:    5805321 HIT:    5766360 MISS:      38961
cpu0_DTLB LOAD         ACCESS:    5805321 HIT:    5766360 MISS:      38961
cpu0_DTLB RFO          ACCESS:          0 HIT:          0 MISS:          0
cpu0_DTLB PREFETCH     ACCESS:          0 HIT:          0 MISS:          0
cpu0_DTLB WRITE        ACCESS:          0 HIT:          0 MISS:          0
cpu0_DTLB TRANSLATION  ACCESS:          0 HIT:          0 MISS:          0
cpu0_DTLB PREFETCH REQUESTED:          0 ISSUED:          0 USEFUL:          0 USELESS:          0
cpu0_DTLB AVERAGE MISS LATENCY: 10.18 cycles
cpu0_ITLB TOTAL        ACCESS:          0 HIT:          0 MISS:          0
cpu0_ITLB LOAD         ACCESS:          0 HIT:          0 MISS:          0
cpu0_ITLB RFO          ACCESS:          0 HIT:          0 MISS:          0
cpu0_ITLB PREFETCH     ACCESS:          0 HIT:          0 MISS:          0
cpu0_ITLB WRITE        ACCESS:          0 HIT:          0 MISS:          0
cpu0_ITLB TRANSLATION  ACCESS:          0 HIT:          0 MISS:          0
cpu0_ITLB PREFETCH REQUESTED:          0 ISSUED:          0 USEFUL:          0 USELESS:          0
cpu0_ITLB AVERAGE MISS LATENCY: -nan cycles
cpu0_L1D TOTAL        ACCESS:   11753651 HIT:    9975671 MISS:    1777980
cpu0_L1D LOAD         ACCESS:    6171145 HIT:    5099739 MISS:    1071406
cpu0_L1D RFO          ACCESS:          0 HIT:          0 MISS:          0
cpu0_L1D PREFETCH     ACCESS:    3823911 HIT:    3118852 MISS:     705059
cpu0_L1D WRITE        ACCESS:    1755140 HIT:    1753774 MISS:       1366
cpu0_L1D TRANSLATION  ACCESS:       3455 HIT:       3306 MISS:        149
cpu0_L1D PREFETCH REQUESTED:    6171461 ISSUED:    3823911 USEFUL:     260805 USELESS:       2918
cpu0_L1D AVERAGE MISS LATENCY: 47.02 cycles
cpu0_L1I TOTAL        ACCESS:          0 HIT:          0 MISS:          0
cpu0_L1I LOAD         ACCESS:          0 HIT:          0 MISS:          0
cpu0_L1I RFO          ACCESS:          0 HIT:          0 MISS:          0
cpu0_L1I PREFETCH     ACCESS:          0 HIT:          0 MISS:          0
cpu0_L1I WRITE        ACCESS:          0 HIT:          0 MISS:          0
cpu0_L1I TRANSLATION  ACCESS:          0 HIT:          0 MISS:          0
cpu0_L1I PREFETCH REQUESTED:          0 ISSUED:          0 USEFUL:          0 USELESS:          0
cpu0_L1I AVERAGE MISS LATENCY: -nan cycles
cpu0_L2C TOTAL        ACCESS:     574507 HIT:     224283 MISS:     350224
cpu0_L2C LOAD         ACCESS:      69661 HIT:       1065 MISS:      68596
cpu0_L2C RFO          ACCESS:        330 HIT:          0 MISS:        330
cpu0_L2C PREFETCH     ACCESS:     284714 HIT:       3562 MISS:     281152
cpu0_L2C WRITE        ACCESS:     219656 HIT:     219656 MISS:          0
cpu0_L2C TRANSLATION  ACCESS:        146 HIT:          0 MISS:        146
cpu0_L2C PREFETCH REQUESTED:      20977 ISSUED:      20977 USEFUL:      14364 USELESS:        142
cpu0_L2C AVERAGE MISS LATENCY: 386.2 cycles
cpu0_STLB TOTAL        ACCESS:       5799 HIT:       2363 MISS:       3436
cpu0_STLB LOAD         ACCESS:       5799 HIT:       2363 MISS:       3436
cpu0_STLB RFO          ACCESS:          0 HIT:          0 MISS:          0
cpu0_STLB PREFETCH     ACCESS:          0 HIT:          0 MISS:          0
cpu0_STLB WRITE        ACCESS:          0 HIT:          0 MISS:          0
cpu0_STLB TRANSLATION  ACCESS:          0 HIT:          0 MISS:          0
cpu0_STLB PREFETCH REQUESTED:          0 ISSUED:          0 USEFUL:          0 USELESS:          0
cpu0_STLB AVERAGE MISS LATENCY: 222.3 cycles

DRAM Statistics

Channel 0 RQ ROW_BUFFER_HIT:      61261
  ROW_BUFFER_MISS:     160411
 AVG DBUS CONGESTED CYCLE: 3.939
WQ ROW_BUFFER_HIT: Channel 0 
  ROW_BUFFER_MISS:       6745
  FULL:     214709
