WARNING: physical memory size is smaller than virtual memory size.

*** ChampSim Multicore Out-of-Order Simulator ***
Warmup Instructions: 25000000
Simulation Instructions: 25000000
Number of CPUs: 1
Page size: 4096

Off-chip DRAM Size: 4 GiB Channels: 1 Width: 64-bit Data Race: 800 MT/s
Heartbeat CPU 0 instructions: 10000002 cycles: 2500102 heartbeat IPC: 4 cumulative IPC: 4 (Simulation time: 00 hr 00 min 49 sec)
Heartbeat CPU 0 instructions: 20000002 cycles: 5000102 heartbeat IPC: 4 cumulative IPC: 4 (Simulation time: 00 hr 01 min 39 sec)
Warmup finished CPU 0 instructions: 25000002 cycles: 6250103 cumulative IPC: 4 (Simulation time: 00 hr 02 min 04 sec)
Warmup complete CPU 0 instructions: 25000002 cycles: 6250103 cumulative IPC: 4 (Simulation time: 00 hr 02 min 04 sec)
Heartbeat CPU 0 instructions: 30000003 cycles: 12536962 heartbeat IPC: 1.327 cumulative IPC: 0.7953 (Simulation time: 00 hr 03 min 24 sec)
Heartbeat CPU 0 instructions: 40000003 cycles: 25199762 heartbeat IPC: 0.7897 cumulative IPC: 0.7916 (Simulation time: 00 hr 06 min 03 sec)
Heartbeat CPU 0 instructions: 50000001 cycles: 37979698 heartbeat IPC: 0.7825 cumulative IPC: 0.7879 (Simulation time: 00 hr 08 min 30 sec)
Simulation finished CPU 0 instructions: 25000003 cycles: 31729597 cumulative IPC: 0.7879 (Simulation time: 00 hr 08 min 30 sec)
Simulation complete CPU 0 instructions: 25000003 cycles: 31729597 cumulative IPC: 0.7879 (Simulation time: 00 hr 08 min 30 sec)

ChampSim completed all CPUs

=== Simulation ===
CPU 0 runs ./traces/649.fotonik3d_s-1176B.champsimtrace.xz
Region of Interest Statistics

CPU 0 cumulative IPC: 0.7879 instructions: 25000003 cycles: 31729597
CPU 0 Branch Prediction Accuracy: 99.97% MPKI: 0.0044 Average ROB Occupancy at Mispredict: 352
Branch type MPKI
BRANCH_DIRECT_JUMP: 0
BRANCH_INDIRECT: 0
BRANCH_CONDITIONAL: 0.0044
BRANCH_DIRECT_CALL: 0
BRANCH_INDIRECT_CALL: 0
BRANCH_RETURN: 0

LLC TOTAL        ACCESS:     552741 HIT:     229842 MISS:     322899
LLC LOAD         ACCESS:      65166 HIT:       3564 MISS:      61602
LLC RFO          ACCESS:        330 HIT:        330 MISS:          0
LLC PREFETCH     ACCESS:     267649 HIT:     109326 MISS:     158323
LLC WRITE        ACCESS:     219450 HIT:     116526 MISS:     102924
LLC TRANSLATION  ACCESS:        146 HIT:         96 MISS:         50
LLC PREFETCH REQUESTED:          0 ISSUED:          0 USEFUL:          0 USELESS:          0
LLC AVERAGE MISS LATENCY: 393 cycles
cpu0_DTLB TOTAL        ACCESS:    5806326 HIT:    5767326 MISS:      39000
cpu0_DTLB LOAD         ACCESS:    5806326 HIT:    5767326 MISS:      39000
cpu0_DTLB RFO          ACCESS:          0 HIT:          0 MISS:          0
cpu0_DTLB PREFETCH     ACCESS:          0 HIT:          0 MISS:          0
cpu0_DTLB WRITE        ACCESS:          0 HIT:          0 MISS:          0
cpu0_DTLB TRANSLATION  ACCESS:          0 HIT:          0 MISS:          0
cpu0_DTLB PREFETCH REQUESTED:          0 ISSUED:          0 USEFUL:          0 USELESS:          0
cpu0_DTLB AVERAGE MISS LATENCY: 10.56 cycles
cpu0_ITLB TOTAL        ACCESS:          0 HIT:          0 MISS:          0
cpu0_ITLB LOAD         ACCESS:          0 HIT:          0 MISS:          0
cpu0_ITLB RFO          ACCESS:          0 HIT:          0 MISS:          0
cpu0_ITLB PREFETCH     ACCESS:          0 HIT:          0 MISS:          0
cpu0_ITLB WRITE        ACCESS:          0 HIT:          0 MISS:          0
cpu0_ITLB TRANSLATION  ACCESS:          0 HIT:          0 MISS:          0
cpu0_ITLB PREFETCH REQUESTED:          0 ISSUED:          0 USEFUL:          0 USELESS:          0
cpu0_ITLB AVERAGE MISS LATENCY: -nan cycles
cpu0_L1D TOTAL        ACCESS:   11766514 HIT:   10002184 MISS:    1764330
cpu0_L1D LOAD         ACCESS:    6173992 HIT:    5113715 MISS:    1060277
cpu0_L1D RFO          ACCESS:          0 HIT:          0 MISS:          0
cpu0_L1D PREFETCH     ACCESS:    3833927 HIT:    3131374 MISS:     702553
cpu0_L1D WRITE        ACCESS:    1755140 HIT:    1753789 MISS:       1351
cpu0_L1D TRANSLATION  ACCESS:       3455 HIT:       3306 MISS:        149
cpu0_L1D PREFETCH REQUESTED:    6174115 ISSUED:    3833927 USEFUL:     261726 USELESS:       2928
cpu0_L1D AVERAGE MISS LATENCY: 47.17 cycles
cpu0_L1I TOTAL        ACCESS:          0 HIT:          0 MISS:          0
cpu0_L1I LOAD         ACCESS:          0 HIT:          0 MISS:          0
cpu0_L1I RFO          ACCESS:          0 HIT:          0 MISS:          0
cpu0_L1I PREFETCH     ACCESS:          0 HIT:          0 MISS:          0
cpu0_L1I WRITE        ACCESS:          0 HIT:          0 MISS:          0
cpu0_L1I TRANSLATION  ACCESS:          0 HIT:          0 MISS:          0
cpu0_L1I PREFETCH REQUESTED:          0 ISSUED:          0 USEFUL:          0 USELESS:          0
cpu0_L1I AVERAGE MISS LATENCY: -nan cycles
cpu0_L2C TOTAL        ACCESS:     574608 HIT:     224432 MISS:     350176
cpu0_L2C LOAD         ACCESS:      68740 HIT:       1109 MISS:      67631
cpu0_L2C RFO          ACCESS:        330 HIT:          0 MISS:        330
cpu0_L2C PREFETCH     ACCESS:     285737 HIT:       3668 MISS:     282069
cpu0_L2C WRITE        ACCESS:     219655 HIT:     219655 MISS:          0
cpu0_L2C TRANSLATION  ACCESS:        146 HIT:          0 MISS:        146
cpu0_L2C PREFETCH REQUESTED:      21065 ISSUED:      21065 USEFUL:      14372 USELESS:        115
cpu0_L2C AVERAGE MISS LATENCY: 380.9 cycles
cpu0_STLB TOTAL        ACCESS:       5799 HIT:       2363 MISS:       3436
cpu0_STLB LOAD         ACCESS:       5799 HIT:       2363 MISS:       3436
cpu0_STLB RFO          ACCESS:          0 HIT:          0 MISS:          0
cpu0_STLB PREFETCH     ACCESS:          0 HIT:          0 MISS:          0
cpu0_STLB WRITE        ACCESS:          0 HIT:          0 MISS:          0
cpu0_STLB TRANSLATION  ACCESS:          0 HIT:          0 MISS:          0
cpu0_STLB PREFETCH REQUESTED:          0 ISSUED:          0 USEFUL:          0 USELESS:          0
cpu0_STLB AVERAGE MISS LATENCY: 223.8 cycles

DRAM Statistics

Channel 0 RQ ROW_BUFFER_HIT:      66819
  ROW_BUFFER_MISS:     153152
 AVG DBUS CONGESTED CYCLE: 3.926
WQ ROW_BUFFER_HIT: Channel 0 
  ROW_BUFFER_MISS:      12510
  FULL:     205664
