WARNING: physical memory size is smaller than virtual memory size.

*** ChampSim Multicore Out-of-Order Simulator ***
Warmup Instructions: 25000000
Simulation Instructions: 25000000
Number of CPUs: 1
Page size: 4096

Off-chip DRAM Size: 4 GiB Channels: 1 Width: 64-bit Data Race: 800 MT/s
Heartbeat CPU 0 instructions: 10000001 cycles: 2500103 heartbeat IPC: 4 cumulative IPC: 4 (Simulation time: 00 hr 00 min 49 sec)
Heartbeat CPU 0 instructions: 20000001 cycles: 5000103 heartbeat IPC: 4 cumulative IPC: 4 (Simulation time: 00 hr 01 min 39 sec)
Warmup finished CPU 0 instructions: 25000001 cycles: 6250104 cumulative IPC: 4 (Simulation time: 00 hr 02 min 03 sec)
Warmup complete CPU 0 instructions: 25000001 cycles: 6250104 cumulative IPC: 4 (Simulation time: 00 hr 02 min 03 sec)
Heartbeat CPU 0 instructions: 30000001 cycles: 12557085 heartbeat IPC: 1.323 cumulative IPC: 0.7928 (Simulation time: 00 hr 03 min 21 sec)
Heartbeat CPU 0 instructions: 40000001 cycles: 25254155 heartbeat IPC: 0.7876 cumulative IPC: 0.7893 (Simulation time: 00 hr 05 min 59 sec)
Heartbeat CPU 0 instructions: 50000003 cycles: 37963697 heartbeat IPC: 0.7868 cumulative IPC: 0.7883 (Simulation time: 00 hr 08 min 23 sec)
Simulation finished CPU 0 instructions: 25000002 cycles: 31713594 cumulative IPC: 0.7883 (Simulation time: 00 hr 08 min 23 sec)
Simulation complete CPU 0 instructions: 25000002 cycles: 31713594 cumulative IPC: 0.7883 (Simulation time: 00 hr 08 min 23 sec)

ChampSim completed all CPUs

=== Simulation ===
CPU 0 runs ./traces/649.fotonik3d_s-8225B.champsimtrace.xz
Region of Interest Statistics

CPU 0 cumulative IPC: 0.7883 instructions: 25000002 cycles: 31713594
CPU 0 Branch Prediction Accuracy: 99.98% MPKI: 0.00436 Average ROB Occupancy at Mispredict: 352
Branch type MPKI
BRANCH_DIRECT_JUMP: 0
BRANCH_INDIRECT: 0
BRANCH_CONDITIONAL: 0.00436
BRANCH_DIRECT_CALL: 0
BRANCH_INDIRECT_CALL: 0
BRANCH_RETURN: 0

LLC TOTAL        ACCESS:     552594 HIT:     223243 MISS:     329351
LLC LOAD         ACCESS:      65375 HIT:       3479 MISS:      61896
LLC RFO          ACCESS:        275 HIT:        274 MISS:          1
LLC PREFETCH     ACCESS:     267368 HIT:     109202 MISS:     158166
LLC WRITE        ACCESS:     219446 HIT:     110182 MISS:     109264
LLC TRANSLATION  ACCESS:        130 HIT:        106 MISS:         24
LLC PREFETCH REQUESTED:          0 ISSUED:          0 USEFUL:          0 USELESS:          0
LLC AVERAGE MISS LATENCY: 385.7 cycles
cpu0_DTLB TOTAL        ACCESS:    5805566 HIT:    5766503 MISS:      39063
cpu0_DTLB LOAD         ACCESS:    5805566 HIT:    5766503 MISS:      39063
cpu0_DTLB RFO          ACCESS:          0 HIT:          0 MISS:          0
cpu0_DTLB PREFETCH     ACCESS:          0 HIT:          0 MISS:          0
cpu0_DTLB WRITE        ACCESS:          0 HIT:          0 MISS:          0
cpu0_DTLB TRANSLATION  ACCESS:          0 HIT:          0 MISS:          0
cpu0_DTLB PREFETCH REQUESTED:          0 ISSUED:          0 USEFUL:          0 USELESS:          0
cpu0_DTLB AVERAGE MISS LATENCY: 9.518 cycles
cpu0_ITLB TOTAL        ACCESS:          0 HIT:          0 MISS:          0
cpu0_ITLB LOAD         ACCESS:          0 HIT:          0 MISS:          0
cpu0_ITLB RFO          ACCESS:          0 HIT:          0 MISS:          0
cpu0_ITLB PREFETCH     ACCESS:          0 HIT:          0 MISS:          0
cpu0_ITLB WRITE        ACCESS:          0 HIT:          0 MISS:          0
cpu0_ITLB TRANSLATION  ACCESS:          0 HIT:          0 MISS:          0
cpu0_ITLB PREFETCH REQUESTED:          0 ISSUED:          0 USEFUL:          0 USELESS:          0
cpu0_ITLB AVERAGE MISS LATENCY: -nan cycles
cpu0_L1D TOTAL        ACCESS:   11759477 HIT:    9996202 MISS:    1763275
cpu0_L1D LOAD         ACCESS:    6172663 HIT:    5112469 MISS:    1060194
cpu0_L1D RFO          ACCESS:          0 HIT:          0 MISS:          0
cpu0_L1D PREFETCH     ACCESS:    3828233 HIT:    3126587 MISS:     701646
cpu0_L1D WRITE        ACCESS:    1755140 HIT:    1753837 MISS:       1303
cpu0_L1D TRANSLATION  ACCESS:       3441 HIT:       3309 MISS:        132
cpu0_L1D PREFETCH REQUESTED:    6172890 ISSUED:    3828229 USEFUL:     261284 USELESS:       2936
cpu0_L1D AVERAGE MISS LATENCY: 47.23 cycles
cpu0_L1I TOTAL        ACCESS:          0 HIT:          0 MISS:          0
cpu0_L1I LOAD         ACCESS:          0 HIT:          0 MISS:          0
cpu0_L1I RFO          ACCESS:          0 HIT:          0 MISS:          0
cpu0_L1I PREFETCH     ACCESS:          0 HIT:          0 MISS:          0
cpu0_L1I WRITE        ACCESS:          0 HIT:          0 MISS:          0
cpu0_L1I TRANSLATION  ACCESS:          0 HIT:          0 MISS:          0
cpu0_L1I PREFETCH REQUESTED:          0 ISSUED:          0 USEFUL:          0 USELESS:          0
cpu0_L1I AVERAGE MISS LATENCY: -nan cycles
cpu0_L2C TOTAL        ACCESS:     574794 HIT:     224721 MISS:     350073
cpu0_L2C LOAD         ACCESS:      69234 HIT:       1315 MISS:      67919
cpu0_L2C RFO          ACCESS:        275 HIT:          0 MISS:        275
cpu0_L2C PREFETCH     ACCESS:     285479 HIT:       3730 MISS:     281749
cpu0_L2C WRITE        ACCESS:     219675 HIT:     219675 MISS:          0
cpu0_L2C TRANSLATION  ACCESS:        131 HIT:          1 MISS:        130
cpu0_L2C PREFETCH REQUESTED:      21263 ISSUED:      21263 USEFUL:      14667 USELESS:         66
cpu0_L2C AVERAGE MISS LATENCY: 381.1 cycles
cpu0_STLB TOTAL        ACCESS:       5887 HIT:       2457 MISS:       3430
cpu0_STLB LOAD         ACCESS:       5887 HIT:       2457 MISS:       3430
cpu0_STLB RFO          ACCESS:          0 HIT:          0 MISS:          0
cpu0_STLB PREFETCH     ACCESS:          0 HIT:          0 MISS:          0
cpu0_STLB WRITE        ACCESS:          0 HIT:          0 MISS:          0
cpu0_STLB TRANSLATION  ACCESS:          0 HIT:          0 MISS:          0
cpu0_STLB PREFETCH REQUESTED:          0 ISSUED:          0 USEFUL:          0 USELESS:          0
cpu0_STLB AVERAGE MISS LATENCY: 211.3 cycles

DRAM Statistics

Channel 0 RQ ROW_BUFFER_HIT:      67189
  ROW_BUFFER_MISS:     152893
 AVG DBUS CONGESTED CYCLE: 3.925
WQ ROW_BUFFER_HIT: Channel 0 
  ROW_BUFFER_MISS:      14054
  FULL:     203812
