WARNING: physical memory size is smaller than virtual memory size.

*** ChampSim Multicore Out-of-Order Simulator ***
Warmup Instructions: 25000000
Simulation Instructions: 25000000
Number of CPUs: 1
Page size: 4096

Off-chip DRAM Size: 4 GiB Channels: 1 Width: 64-bit Data Race: 800 MT/s
Heartbeat CPU 0 instructions: 10000001 cycles: 2500103 heartbeat IPC: 4 cumulative IPC: 4 (Simulation time: 00 hr 00 min 40 sec)
Heartbeat CPU 0 instructions: 20000001 cycles: 5000103 heartbeat IPC: 4 cumulative IPC: 4 (Simulation time: 00 hr 01 min 21 sec)
Warmup finished CPU 0 instructions: 25000001 cycles: 6250104 cumulative IPC: 4 (Simulation time: 00 hr 01 min 41 sec)
Warmup complete CPU 0 instructions: 25000001 cycles: 6250104 cumulative IPC: 4 (Simulation time: 00 hr 01 min 41 sec)
Heartbeat CPU 0 instructions: 30000001 cycles: 13050987 heartbeat IPC: 1.242 cumulative IPC: 0.7352 (Simulation time: 00 hr 02 min 54 sec)
Heartbeat CPU 0 instructions: 40000001 cycles: 25717502 heartbeat IPC: 0.7895 cumulative IPC: 0.7705 (Simulation time: 00 hr 05 min 11 sec)
Heartbeat CPU 0 instructions: 50000003 cycles: 38361952 heartbeat IPC: 0.7909 cumulative IPC: 0.7785 (Simulation time: 00 hr 07 min 10 sec)
Simulation finished CPU 0 instructions: 25000002 cycles: 32111849 cumulative IPC: 0.7785 (Simulation time: 00 hr 07 min 10 sec)
Simulation complete CPU 0 instructions: 25000002 cycles: 32111849 cumulative IPC: 0.7785 (Simulation time: 00 hr 07 min 10 sec)

ChampSim completed all CPUs

=== Simulation ===
CPU 0 runs ./traces/649.fotonik3d_s-8225B.champsimtrace.xz
Region of Interest Statistics

CPU 0 cumulative IPC: 0.7785 instructions: 25000002 cycles: 32111849
CPU 0 Branch Prediction Accuracy: 99.98% MPKI: 0.00436 Average ROB Occupancy at Mispredict: 352
Branch type MPKI
BRANCH_DIRECT_JUMP: 0
BRANCH_INDIRECT: 0
BRANCH_CONDITIONAL: 0.00436
BRANCH_DIRECT_CALL: 0
BRANCH_INDIRECT_CALL: 0
BRANCH_RETURN: 0

LLC TOTAL        ACCESS:     552569 HIT:     259681 MISS:     292888
LLC LOAD         ACCESS:      65791 HIT:       3383 MISS:      62408
LLC RFO          ACCESS:        275 HIT:        271 MISS:          4
LLC PREFETCH     ACCESS:     266928 HIT:     106826 MISS:     160102
LLC WRITE        ACCESS:     219445 HIT:     149095 MISS:      70350
LLC TRANSLATION  ACCESS:        130 HIT:        106 MISS:         24
LLC PREFETCH REQUESTED:          0 ISSUED:          0 USEFUL:          0 USELESS:          0
LLC AVERAGE MISS LATENCY: 445.7 cycles
cpu0_DTLB TOTAL        ACCESS:    5805544 HIT:    5767113 MISS:      38431
cpu0_DTLB LOAD         ACCESS:    5805544 HIT:    5767113 MISS:      38431
cpu0_DTLB RFO          ACCESS:          0 HIT:          0 MISS:          0
cpu0_DTLB PREFETCH     ACCESS:          0 HIT:          0 MISS:          0
cpu0_DTLB WRITE        ACCESS:          0 HIT:          0 MISS:          0
cpu0_DTLB TRANSLATION  ACCESS:          0 HIT:          0 MISS:          0
cpu0_DTLB PREFETCH REQUESTED:          0 ISSUED:          0 USEFUL:          0 USELESS:          0
cpu0_DTLB AVERAGE MISS LATENCY: 10 cycles
cpu0_ITLB TOTAL        ACCESS:          0 HIT:          0 MISS:          0
cpu0_ITLB LOAD         ACCESS:          0 HIT:          0 MISS:          0
cpu0_ITLB RFO          ACCESS:          0 HIT:          0 MISS:          0
cpu0_ITLB PREFETCH     ACCESS:          0 HIT:          0 MISS:          0
cpu0_ITLB WRITE        ACCESS:          0 HIT:          0 MISS:          0
cpu0_ITLB TRANSLATION  ACCESS:          0 HIT:          0 MISS:          0
cpu0_ITLB PREFETCH REQUESTED:          0 ISSUED:          0 USEFUL:          0 USELESS:          0
cpu0_ITLB AVERAGE MISS LATENCY: -nan cycles
cpu0_L1D TOTAL        ACCESS:   11755279 HIT:    9967466 MISS:    1787813
cpu0_L1D LOAD         ACCESS:    6170782 HIT:    5093217 MISS:    1077565
cpu0_L1D RFO          ACCESS:          0 HIT:          0 MISS:          0
cpu0_L1D PREFETCH     ACCESS:    3825917 HIT:    3117077 MISS:     708840
cpu0_L1D WRITE        ACCESS:    1755140 HIT:    1753863 MISS:       1277
cpu0_L1D TRANSLATION  ACCESS:       3440 HIT:       3309 MISS:        131
cpu0_L1D PREFETCH REQUESTED:    6174637 ISSUED:    3825913 USEFUL:     261043 USELESS:       2899
cpu0_L1D AVERAGE MISS LATENCY: 47.26 cycles
cpu0_L1I TOTAL        ACCESS:          0 HIT:          0 MISS:          0
cpu0_L1I LOAD         ACCESS:          0 HIT:          0 MISS:          0
cpu0_L1I RFO          ACCESS:          0 HIT:          0 MISS:          0
cpu0_L1I PREFETCH     ACCESS:          0 HIT:          0 MISS:          0
cpu0_L1I WRITE        ACCESS:          0 HIT:          0 MISS:          0
cpu0_L1I TRANSLATION  ACCESS:          0 HIT:          0 MISS:          0
cpu0_L1I PREFETCH REQUESTED:          0 ISSUED:          0 USEFUL:          0 USELESS:          0
cpu0_L1I AVERAGE MISS LATENCY: -nan cycles
cpu0_L2C TOTAL        ACCESS:     574378 HIT:     224452 MISS:     349926
cpu0_L2C LOAD         ACCESS:      69474 HIT:       1207 MISS:      68267
cpu0_L2C RFO          ACCESS:        275 HIT:          0 MISS:        275
cpu0_L2C PREFETCH     ACCESS:     284825 HIT:       3571 MISS:     281254
cpu0_L2C WRITE        ACCESS:     219673 HIT:     219673 MISS:          0
cpu0_L2C TRANSLATION  ACCESS:        131 HIT:          1 MISS:        130
cpu0_L2C PREFETCH REQUESTED:      20887 ISSUED:      20887 USEFUL:      14316 USELESS:        116
cpu0_L2C AVERAGE MISS LATENCY: 391.3 cycles
cpu0_STLB TOTAL        ACCESS:       5889 HIT:       2459 MISS:       3430
cpu0_STLB LOAD         ACCESS:       5889 HIT:       2459 MISS:       3430
cpu0_STLB RFO          ACCESS:          0 HIT:          0 MISS:          0
cpu0_STLB PREFETCH     ACCESS:          0 HIT:          0 MISS:          0
cpu0_STLB WRITE        ACCESS:          0 HIT:          0 MISS:          0
cpu0_STLB TRANSLATION  ACCESS:          0 HIT:          0 MISS:          0
cpu0_STLB PREFETCH REQUESTED:          0 ISSUED:          0 USEFUL:          0 USELESS:          0
cpu0_STLB AVERAGE MISS LATENCY: 214.9 cycles

DRAM Statistics

Channel 0 RQ ROW_BUFFER_HIT:      61322
  ROW_BUFFER_MISS:     161213
 AVG DBUS CONGESTED CYCLE: 3.939
WQ ROW_BUFFER_HIT: Channel 0 
  ROW_BUFFER_MISS:       6713
  FULL:     214963
