WARNING: physical memory size is smaller than virtual memory size.

*** ChampSim Multicore Out-of-Order Simulator ***
Warmup Instructions: 25000000
Simulation Instructions: 25000000
Number of CPUs: 1
Page size: 4096

Off-chip DRAM Size: 4 GiB Channels: 1 Width: 64-bit Data Race: 800 MT/s
Heartbeat CPU 0 instructions: 10000000 cycles: 2500125 heartbeat IPC: 4 cumulative IPC: 4 (Simulation time: 00 hr 00 min 40 sec)
Heartbeat CPU 0 instructions: 20000001 cycles: 5000145 heartbeat IPC: 4 cumulative IPC: 4 (Simulation time: 00 hr 01 min 20 sec)
Warmup finished CPU 0 instructions: 25000001 cycles: 6250146 cumulative IPC: 4 (Simulation time: 00 hr 01 min 40 sec)
Warmup complete CPU 0 instructions: 25000001 cycles: 6250146 cumulative IPC: 4 (Simulation time: 00 hr 01 min 40 sec)
Heartbeat CPU 0 instructions: 30000000 cycles: 13476405 heartbeat IPC: 1.18 cumulative IPC: 0.6919 (Simulation time: 00 hr 02 min 57 sec)
Heartbeat CPU 0 instructions: 40000002 cycles: 28919039 heartbeat IPC: 0.6476 cumulative IPC: 0.6617 (Simulation time: 00 hr 05 min 34 sec)
Heartbeat CPU 0 instructions: 50000000 cycles: 44646572 heartbeat IPC: 0.6358 cumulative IPC: 0.6511 (Simulation time: 00 hr 07 min 42 sec)
Simulation finished CPU 0 instructions: 25000003 cycles: 38396428 cumulative IPC: 0.6511 (Simulation time: 00 hr 07 min 42 sec)
Simulation complete CPU 0 instructions: 25000003 cycles: 38396428 cumulative IPC: 0.6511 (Simulation time: 00 hr 07 min 42 sec)

ChampSim completed all CPUs

=== Simulation ===
CPU 0 runs ./traces/649.fotonik3d_s-7084B.champsimtrace.xz
Region of Interest Statistics

CPU 0 cumulative IPC: 0.6511 instructions: 25000003 cycles: 38396428
CPU 0 Branch Prediction Accuracy: 99.19% MPKI: 0.05616 Average ROB Occupancy at Mispredict: 352
Branch type MPKI
BRANCH_DIRECT_JUMP: 0
BRANCH_INDIRECT: 0
BRANCH_CONDITIONAL: 0.0562
BRANCH_DIRECT_CALL: 0
BRANCH_INDIRECT_CALL: 0
BRANCH_RETURN: 0

LLC TOTAL        ACCESS:     551376 HIT:      92909 MISS:     458467
LLC LOAD         ACCESS:      45521 HIT:         26 MISS:      45495
LLC RFO          ACCESS:          0 HIT:          0 MISS:          0
LLC PREFETCH     ACCESS:     375574 HIT:        136 MISS:     375438
LLC WRITE        ACCESS:     129801 HIT:      92362 MISS:      37439
LLC TRANSLATION  ACCESS:        480 HIT:        385 MISS:         95
LLC PREFETCH REQUESTED:          0 ISSUED:          0 USEFUL:          0 USELESS:          0
LLC AVERAGE MISS LATENCY: 836.8 cycles
cpu0_DTLB TOTAL        ACCESS:    6193484 HIT:    6168586 MISS:      24898
cpu0_DTLB LOAD         ACCESS:    6193484 HIT:    6168586 MISS:      24898
cpu0_DTLB RFO          ACCESS:          0 HIT:          0 MISS:          0
cpu0_DTLB PREFETCH     ACCESS:          0 HIT:          0 MISS:          0
cpu0_DTLB WRITE        ACCESS:          0 HIT:          0 MISS:          0
cpu0_DTLB TRANSLATION  ACCESS:          0 HIT:          0 MISS:          0
cpu0_DTLB PREFETCH REQUESTED:          0 ISSUED:          0 USEFUL:          0 USELESS:          0
cpu0_DTLB AVERAGE MISS LATENCY: 41.44 cycles
cpu0_ITLB TOTAL        ACCESS:          0 HIT:          0 MISS:          0
cpu0_ITLB LOAD         ACCESS:          0 HIT:          0 MISS:          0
cpu0_ITLB RFO          ACCESS:          0 HIT:          0 MISS:          0
cpu0_ITLB PREFETCH     ACCESS:          0 HIT:          0 MISS:          0
cpu0_ITLB WRITE        ACCESS:          0 HIT:          0 MISS:          0
cpu0_ITLB TRANSLATION  ACCESS:          0 HIT:          0 MISS:          0
cpu0_ITLB PREFETCH REQUESTED:          0 ISSUED:          0 USEFUL:          0 USELESS:          0
cpu0_ITLB AVERAGE MISS LATENCY: -nan cycles
cpu0_L1D TOTAL        ACCESS:   10779593 HIT:    8974791 MISS:    1804802
cpu0_L1D LOAD         ACCESS:    6524201 HIT:    5786695 MISS:     737506
cpu0_L1D RFO          ACCESS:          0 HIT:          0 MISS:          0
cpu0_L1D PREFETCH     ACCESS:    3020393 HIT:    1959912 MISS:    1060481
cpu0_L1D WRITE        ACCESS:    1228165 HIT:    1228161 MISS:          4
cpu0_L1D TRANSLATION  ACCESS:       6834 HIT:         23 MISS:       6811
cpu0_L1D PREFETCH REQUESTED:    6881843 ISSUED:    3020393 USEFUL:     338223 USELESS:      13797
cpu0_L1D AVERAGE MISS LATENCY: 120.1 cycles
cpu0_L1I TOTAL        ACCESS:          0 HIT:          0 MISS:          0
cpu0_L1I LOAD         ACCESS:          0 HIT:          0 MISS:          0
cpu0_L1I RFO          ACCESS:          0 HIT:          0 MISS:          0
cpu0_L1I PREFETCH     ACCESS:          0 HIT:          0 MISS:          0
cpu0_L1I WRITE        ACCESS:          0 HIT:          0 MISS:          0
cpu0_L1I TRANSLATION  ACCESS:          0 HIT:          0 MISS:          0
cpu0_L1I PREFETCH REQUESTED:          0 ISSUED:          0 USEFUL:          0 USELESS:          0
cpu0_L1I AVERAGE MISS LATENCY: -nan cycles
cpu0_L2C TOTAL        ACCESS:     685702 HIT:     245793 MISS:     439909
cpu0_L2C LOAD         ACCESS:      85433 HIT:      39255 MISS:      46178
cpu0_L2C RFO          ACCESS:          4 HIT:          4 MISS:          0
cpu0_L2C PREFETCH     ACCESS:     462881 HIT:      69690 MISS:     393191
cpu0_L2C WRITE        ACCESS:     130573 HIT:     130513 MISS:         60
cpu0_L2C TRANSLATION  ACCESS:       6811 HIT:       6331 MISS:        480
cpu0_L2C PREFETCH REQUESTED:     110858 ISSUED:     110858 USEFUL:      39856 USELESS:       3276
cpu0_L2C AVERAGE MISS LATENCY: 890.8 cycles
cpu0_STLB TOTAL        ACCESS:      13920 HIT:       7098 MISS:       6822
cpu0_STLB LOAD         ACCESS:      13920 HIT:       7098 MISS:       6822
cpu0_STLB RFO          ACCESS:          0 HIT:          0 MISS:          0
cpu0_STLB PREFETCH     ACCESS:          0 HIT:          0 MISS:          0
cpu0_STLB WRITE        ACCESS:          0 HIT:          0 MISS:          0
cpu0_STLB TRANSLATION  ACCESS:          0 HIT:          0 MISS:          0
cpu0_STLB PREFETCH REQUESTED:          0 ISSUED:          0 USEFUL:          0 USELESS:          0
cpu0_STLB AVERAGE MISS LATENCY: 197.9 cycles

DRAM Statistics

Channel 0 RQ ROW_BUFFER_HIT:     184280
  ROW_BUFFER_MISS:     236725
 AVG DBUS CONGESTED CYCLE: 3.876
WQ ROW_BUFFER_HIT: Channel 0 
  ROW_BUFFER_MISS:       1317
  FULL:     120149
