WARNING: physical memory size is smaller than virtual memory size.

*** ChampSim Multicore Out-of-Order Simulator ***
Warmup Instructions: 25000000
Simulation Instructions: 25000000
Number of CPUs: 1
Page size: 4096

Off-chip DRAM Size: 4 GiB Channels: 1 Width: 64-bit Data Race: 800 MT/s
Heartbeat CPU 0 instructions: 10000002 cycles: 2500927 heartbeat IPC: 3.999 cumulative IPC: 3.999 (Simulation time: 00 hr 00 min 47 sec)
Heartbeat CPU 0 instructions: 20000002 cycles: 5001741 heartbeat IPC: 3.999 cumulative IPC: 3.999 (Simulation time: 00 hr 01 min 35 sec)
Warmup finished CPU 0 instructions: 25000002 cycles: 6252149 cumulative IPC: 3.999 (Simulation time: 00 hr 01 min 58 sec)
Warmup complete CPU 0 instructions: 25000002 cycles: 6252149 cumulative IPC: 3.999 (Simulation time: 00 hr 01 min 58 sec)
Heartbeat CPU 0 instructions: 30000003 cycles: 11071637 heartbeat IPC: 1.647 cumulative IPC: 1.037 (Simulation time: 00 hr 03 min 03 sec)
Heartbeat CPU 0 instructions: 40000000 cycles: 20473166 heartbeat IPC: 1.064 cumulative IPC: 1.055 (Simulation time: 00 hr 04 min 58 sec)
Heartbeat CPU 0 instructions: 50000000 cycles: 29950537 heartbeat IPC: 1.055 cumulative IPC: 1.055 (Simulation time: 00 hr 06 min 17 sec)
Simulation finished CPU 0 instructions: 25000002 cycles: 23698390 cumulative IPC: 1.055 (Simulation time: 00 hr 06 min 17 sec)
Simulation complete CPU 0 instructions: 25000002 cycles: 23698390 cumulative IPC: 1.055 (Simulation time: 00 hr 06 min 17 sec)

ChampSim completed all CPUs

=== Simulation ===
CPU 0 runs ./traces/654.roms_s-294B.champsimtrace.xz
Region of Interest Statistics

CPU 0 cumulative IPC: 1.055 instructions: 25000002 cycles: 23698390
CPU 0 Branch Prediction Accuracy: 99.93% MPKI: 0.03748 Average ROB Occupancy at Mispredict: 324.4
Branch type MPKI
BRANCH_DIRECT_JUMP: 0
BRANCH_INDIRECT: 0
BRANCH_CONDITIONAL: 0.0375
BRANCH_DIRECT_CALL: 0
BRANCH_INDIRECT_CALL: 0
BRANCH_RETURN: 0

LLC TOTAL        ACCESS:     343902 HIT:      32083 MISS:     311819
LLC LOAD         ACCESS:      24239 HIT:       2139 MISS:      22100
LLC RFO          ACCESS:       2561 HIT:         39 MISS:       2522
LLC PREFETCH     ACCESS:     302275 HIT:      24595 MISS:     277680
LLC WRITE        ACCESS:       2647 HIT:       1398 MISS:       1249
LLC TRANSLATION  ACCESS:      12180 HIT:       3912 MISS:       8268
LLC PREFETCH REQUESTED:          0 ISSUED:          0 USEFUL:          0 USELESS:          0
LLC AVERAGE MISS LATENCY: 463.5 cycles
cpu0_DTLB TOTAL        ACCESS:    6758481 HIT:    6718053 MISS:      40428
cpu0_DTLB LOAD         ACCESS:    6758481 HIT:    6718053 MISS:      40428
cpu0_DTLB RFO          ACCESS:          0 HIT:          0 MISS:          0
cpu0_DTLB PREFETCH     ACCESS:          0 HIT:          0 MISS:          0
cpu0_DTLB WRITE        ACCESS:          0 HIT:          0 MISS:          0
cpu0_DTLB TRANSLATION  ACCESS:          0 HIT:          0 MISS:          0
cpu0_DTLB PREFETCH REQUESTED:          0 ISSUED:          0 USEFUL:          0 USELESS:          0
cpu0_DTLB AVERAGE MISS LATENCY: 97.58 cycles
cpu0_ITLB TOTAL        ACCESS:          0 HIT:          0 MISS:          0
cpu0_ITLB LOAD         ACCESS:          0 HIT:          0 MISS:          0
cpu0_ITLB RFO          ACCESS:          0 HIT:          0 MISS:          0
cpu0_ITLB PREFETCH     ACCESS:          0 HIT:          0 MISS:          0
cpu0_ITLB WRITE        ACCESS:          0 HIT:          0 MISS:          0
cpu0_ITLB TRANSLATION  ACCESS:          0 HIT:          0 MISS:          0
cpu0_ITLB PREFETCH REQUESTED:          0 ISSUED:          0 USEFUL:          0 USELESS:          0
cpu0_ITLB AVERAGE MISS LATENCY: -nan cycles
cpu0_L1D TOTAL        ACCESS:   10395895 HIT:    7922735 MISS:    2473160
cpu0_L1D LOAD         ACCESS:    7287653 HIT:    5796944 MISS:    1490709
cpu0_L1D RFO          ACCESS:          0 HIT:          0 MISS:          0
cpu0_L1D PREFETCH     ACCESS:    2245910 HIT:    1290958 MISS:     954952
cpu0_L1D WRITE        ACCESS:     849933 HIT:     834750 MISS:      15183
cpu0_L1D TRANSLATION  ACCESS:      12399 HIT:         83 MISS:      12316
cpu0_L1D PREFETCH REQUESTED:    7287920 ISSUED:    2245910 USEFUL:     419210 USELESS:      11813
cpu0_L1D AVERAGE MISS LATENCY: 21.93 cycles
cpu0_L1I TOTAL        ACCESS:          0 HIT:          0 MISS:          0
cpu0_L1I LOAD         ACCESS:          0 HIT:          0 MISS:          0
cpu0_L1I RFO          ACCESS:          0 HIT:          0 MISS:          0
cpu0_L1I PREFETCH     ACCESS:          0 HIT:          0 MISS:          0
cpu0_L1I WRITE        ACCESS:          0 HIT:          0 MISS:          0
cpu0_L1I TRANSLATION  ACCESS:          0 HIT:          0 MISS:          0
cpu0_L1I PREFETCH REQUESTED:          0 ISSUED:          0 USEFUL:          0 USELESS:          0
cpu0_L1I AVERAGE MISS LATENCY: -nan cycles
cpu0_L2C TOTAL        ACCESS:     590289 HIT:     246706 MISS:     343583
cpu0_L2C LOAD         ACCESS:      41514 HIT:      17267 MISS:      24247
cpu0_L2C RFO          ACCESS:       2608 HIT:         47 MISS:       2561
cpu0_L2C PREFETCH     ACCESS:     438461 HIT:     133866 MISS:     304595
cpu0_L2C WRITE        ACCESS:      95415 HIT:      95415 MISS:          0
cpu0_L2C TRANSLATION  ACCESS:      12291 HIT:        111 MISS:      12180
cpu0_L2C PREFETCH REQUESTED:       7435 ISSUED:       7435 USEFUL:        745 USELESS:       1252
cpu0_L2C AVERAGE MISS LATENCY: 441 cycles
cpu0_STLB TOTAL        ACCESS:       9850 HIT:       1635 MISS:       8215
cpu0_STLB LOAD         ACCESS:       9850 HIT:       1635 MISS:       8215
cpu0_STLB RFO          ACCESS:          0 HIT:          0 MISS:          0
cpu0_STLB PREFETCH     ACCESS:          0 HIT:          0 MISS:          0
cpu0_STLB WRITE        ACCESS:          0 HIT:          0 MISS:          0
cpu0_STLB TRANSLATION  ACCESS:          0 HIT:          0 MISS:          0
cpu0_STLB PREFETCH REQUESTED:          0 ISSUED:          0 USEFUL:          0 USELESS:          0
cpu0_STLB AVERAGE MISS LATENCY: 805.4 cycles

DRAM Statistics

Channel 0 RQ ROW_BUFFER_HIT:     206963
  ROW_BUFFER_MISS:     102919
 AVG DBUS CONGESTED CYCLE: 3.804
WQ ROW_BUFFER_HIT: Channel 0 
  ROW_BUFFER_MISS:        211
  FULL:       2361
