WARNING: physical memory size is smaller than virtual memory size.

*** ChampSim Multicore Out-of-Order Simulator ***
Warmup Instructions: 25000000
Simulation Instructions: 25000000
Number of CPUs: 1
Page size: 4096

Off-chip DRAM Size: 4 GiB Channels: 1 Width: 64-bit Data Race: 800 MT/s
Heartbeat CPU 0 instructions: 10000000 cycles: 2500349 heartbeat IPC: 3.999 cumulative IPC: 3.999 (Simulation time: 00 hr 00 min 46 sec)
Heartbeat CPU 0 instructions: 20000000 cycles: 5000349 heartbeat IPC: 4 cumulative IPC: 4 (Simulation time: 00 hr 01 min 31 sec)
Warmup finished CPU 0 instructions: 25000000 cycles: 6250350 cumulative IPC: 4 (Simulation time: 00 hr 01 min 56 sec)
Warmup complete CPU 0 instructions: 25000000 cycles: 6250350 cumulative IPC: 4 (Simulation time: 00 hr 01 min 56 sec)
Heartbeat CPU 0 instructions: 30000003 cycles: 21043897 heartbeat IPC: 0.6233 cumulative IPC: 0.338 (Simulation time: 00 hr 04 min 31 sec)
Heartbeat CPU 0 instructions: 40000001 cycles: 49043637 heartbeat IPC: 0.3571 cumulative IPC: 0.3505 (Simulation time: 00 hr 07 min 12 sec)
Heartbeat CPU 0 instructions: 50000003 cycles: 68055141 heartbeat IPC: 0.526 cumulative IPC: 0.4045 (Simulation time: 00 hr 08 min 51 sec)
Simulation finished CPU 0 instructions: 25000003 cycles: 61804792 cumulative IPC: 0.4045 (Simulation time: 00 hr 08 min 51 sec)
Simulation complete CPU 0 instructions: 25000003 cycles: 61804792 cumulative IPC: 0.4045 (Simulation time: 00 hr 08 min 51 sec)

ChampSim completed all CPUs

=== Simulation ===
CPU 0 runs ./traces/654.roms_s-523B.champsimtrace.xz
Region of Interest Statistics

CPU 0 cumulative IPC: 0.4045 instructions: 25000003 cycles: 61804792
CPU 0 Branch Prediction Accuracy: 99.85% MPKI: 0.09976 Average ROB Occupancy at Mispredict: 350.5
Branch type MPKI
BRANCH_DIRECT_JUMP: 4e-05
BRANCH_INDIRECT: 0
BRANCH_CONDITIONAL: 0.0997
BRANCH_DIRECT_CALL: 0
BRANCH_INDIRECT_CALL: 0
BRANCH_RETURN: 0

LLC TOTAL        ACCESS:     895624 HIT:     219268 MISS:     676356
LLC LOAD         ACCESS:     119568 HIT:        320 MISS:     119248
LLC RFO          ACCESS:     155876 HIT:          0 MISS:     155876
LLC PREFETCH     ACCESS:     393204 HIT:        830 MISS:     392374
LLC WRITE        ACCESS:     222660 HIT:     217679 MISS:       4981
LLC TRANSLATION  ACCESS:       4316 HIT:        439 MISS:       3877
LLC PREFETCH REQUESTED:          0 ISSUED:          0 USEFUL:          0 USELESS:          0
LLC AVERAGE MISS LATENCY: 1048 cycles
cpu0_DTLB TOTAL        ACCESS:    6782006 HIT:    6691247 MISS:      90759
cpu0_DTLB LOAD         ACCESS:    6782006 HIT:    6691247 MISS:      90759
cpu0_DTLB RFO          ACCESS:          0 HIT:          0 MISS:          0
cpu0_DTLB PREFETCH     ACCESS:          0 HIT:          0 MISS:          0
cpu0_DTLB WRITE        ACCESS:          0 HIT:          0 MISS:          0
cpu0_DTLB TRANSLATION  ACCESS:          0 HIT:          0 MISS:          0
cpu0_DTLB PREFETCH REQUESTED:          0 ISSUED:          0 USEFUL:          0 USELESS:          0
cpu0_DTLB AVERAGE MISS LATENCY: 39.8 cycles
cpu0_ITLB TOTAL        ACCESS:         32 HIT:         32 MISS:          0
cpu0_ITLB LOAD         ACCESS:         32 HIT:         32 MISS:          0
cpu0_ITLB RFO          ACCESS:          0 HIT:          0 MISS:          0
cpu0_ITLB PREFETCH     ACCESS:          0 HIT:          0 MISS:          0
cpu0_ITLB WRITE        ACCESS:          0 HIT:          0 MISS:          0
cpu0_ITLB TRANSLATION  ACCESS:          0 HIT:          0 MISS:          0
cpu0_ITLB PREFETCH REQUESTED:          0 ISSUED:          0 USEFUL:          0 USELESS:          0
cpu0_ITLB AVERAGE MISS LATENCY: -nan cycles
cpu0_L1D TOTAL        ACCESS:   11929674 HIT:    5037433 MISS:    6892241
cpu0_L1D LOAD         ACCESS:    7288584 HIT:    3524125 MISS:    3764459
cpu0_L1D RFO          ACCESS:          0 HIT:          0 MISS:          0
cpu0_L1D PREFETCH     ACCESS:    2855979 HIT:     937418 MISS:    1918561
cpu0_L1D WRITE        ACCESS:    1769189 HIT:     573055 MISS:    1196134
cpu0_L1D TRANSLATION  ACCESS:      15922 HIT:       2835 MISS:      13087
cpu0_L1D PREFETCH REQUESTED:    7899963 ISSUED:    2855979 USEFUL:     391709 USELESS:      10851
cpu0_L1D AVERAGE MISS LATENCY: 60.66 cycles
cpu0_L1I TOTAL        ACCESS:         36 HIT:          6 MISS:         30
cpu0_L1I LOAD         ACCESS:         36 HIT:          6 MISS:         30
cpu0_L1I RFO          ACCESS:          0 HIT:          0 MISS:          0
cpu0_L1I PREFETCH     ACCESS:          0 HIT:          0 MISS:          0
cpu0_L1I WRITE        ACCESS:          0 HIT:          0 MISS:          0
cpu0_L1I TRANSLATION  ACCESS:          0 HIT:          0 MISS:          0
cpu0_L1I PREFETCH REQUESTED:          0 ISSUED:          0 USEFUL:          0 USELESS:          0
cpu0_L1I AVERAGE MISS LATENCY: 1031 cycles
cpu0_L2C TOTAL        ACCESS:     998476 HIT:     282469 MISS:     716007
cpu0_L2C LOAD         ACCESS:     141950 HIT:      16526 MISS:     125424
cpu0_L2C RFO          ACCESS:     155877 HIT:          1 MISS:     155876
cpu0_L2C PREFETCH     ACCESS:     463846 HIT:      33465 MISS:     430381
cpu0_L2C WRITE        ACCESS:     223719 HIT:     223709 MISS:         10
cpu0_L2C TRANSLATION  ACCESS:      13084 HIT:       8768 MISS:       4316
cpu0_L2C PREFETCH REQUESTED:      61286 ISSUED:      61286 USEFUL:      26520 USELESS:      16342
cpu0_L2C AVERAGE MISS LATENCY: 1006 cycles
cpu0_STLB TOTAL        ACCESS:      15891 HIT:         13 MISS:      15878
cpu0_STLB LOAD         ACCESS:      15891 HIT:         13 MISS:      15878
cpu0_STLB RFO          ACCESS:          0 HIT:          0 MISS:          0
cpu0_STLB PREFETCH     ACCESS:          0 HIT:          0 MISS:          0
cpu0_STLB WRITE        ACCESS:          0 HIT:          0 MISS:          0
cpu0_STLB TRANSLATION  ACCESS:          0 HIT:          0 MISS:          0
cpu0_STLB PREFETCH REQUESTED:          0 ISSUED:          0 USEFUL:          0 USELESS:          0
cpu0_STLB AVERAGE MISS LATENCY: 444.5 cycles

DRAM Statistics

Channel 0 RQ ROW_BUFFER_HIT:     168196
  ROW_BUFFER_MISS:     502562
 AVG DBUS CONGESTED CYCLE: 3.923
WQ ROW_BUFFER_HIT: Channel 0 
  ROW_BUFFER_MISS:       5727
  FULL:     220864
