WARNING: physical memory size is smaller than virtual memory size.

*** ChampSim Multicore Out-of-Order Simulator ***
Warmup Instructions: 25000000
Simulation Instructions: 25000000
Number of CPUs: 1
Page size: 4096

Off-chip DRAM Size: 4 GiB Channels: 1 Width: 64-bit Data Race: 800 MT/s
Heartbeat CPU 0 instructions: 10000000 cycles: 2500090 heartbeat IPC: 4 cumulative IPC: 4 (Simulation time: 00 hr 00 min 43 sec)
Heartbeat CPU 0 instructions: 20000000 cycles: 5000090 heartbeat IPC: 4 cumulative IPC: 4 (Simulation time: 00 hr 01 min 26 sec)
Warmup finished CPU 0 instructions: 25000000 cycles: 6250091 cumulative IPC: 4 (Simulation time: 00 hr 01 min 48 sec)
Warmup complete CPU 0 instructions: 25000000 cycles: 6250091 cumulative IPC: 4 (Simulation time: 00 hr 01 min 48 sec)
Heartbeat CPU 0 instructions: 30000000 cycles: 7924708 heartbeat IPC: 3.419 cumulative IPC: 2.986 (Simulation time: 00 hr 02 min 14 sec)
Heartbeat CPU 0 instructions: 40000001 cycles: 11259758 heartbeat IPC: 2.998 cumulative IPC: 2.994 (Simulation time: 00 hr 03 min 06 sec)
Heartbeat CPU 0 instructions: 50000003 cycles: 34777989 heartbeat IPC: 0.4252 cumulative IPC: 0.8763 (Simulation time: 00 hr 07 min 18 sec)
Simulation finished CPU 0 instructions: 25000003 cycles: 28527899 cumulative IPC: 0.8763 (Simulation time: 00 hr 07 min 18 sec)
Simulation complete CPU 0 instructions: 25000003 cycles: 28527899 cumulative IPC: 0.8763 (Simulation time: 00 hr 07 min 18 sec)

ChampSim completed all CPUs

=== Simulation ===
CPU 0 runs ./traces/654.roms_s-1007B.champsimtrace.xz
Region of Interest Statistics

CPU 0 cumulative IPC: 0.8763 instructions: 25000003 cycles: 28527899
CPU 0 Branch Prediction Accuracy: 86.84% MPKI: 12.49 Average ROB Occupancy at Mispredict: 68.03
Branch type MPKI
BRANCH_DIRECT_JUMP: 0.00016
BRANCH_INDIRECT: 0
BRANCH_CONDITIONAL: 6.26
BRANCH_DIRECT_CALL: 8e-05
BRANCH_INDIRECT_CALL: 0
BRANCH_RETURN: 6.23

LLC TOTAL        ACCESS:     331550 HIT:      66539 MISS:     265011
LLC LOAD         ACCESS:      40944 HIT:        477 MISS:      40467
LLC RFO          ACCESS:      82314 HIT:          0 MISS:      82314
LLC PREFETCH     ACCESS:     124040 HIT:       1392 MISS:     122648
LLC WRITE        ACCESS:      82743 HIT:      64602 MISS:      18141
LLC TRANSLATION  ACCESS:       1509 HIT:         68 MISS:       1441
LLC PREFETCH REQUESTED:          0 ISSUED:          0 USEFUL:          0 USELESS:          0
LLC AVERAGE MISS LATENCY: 1215 cycles
cpu0_DTLB TOTAL        ACCESS:    5473662 HIT:    5436502 MISS:      37160
cpu0_DTLB LOAD         ACCESS:    5473662 HIT:    5436502 MISS:      37160
cpu0_DTLB RFO          ACCESS:          0 HIT:          0 MISS:          0
cpu0_DTLB PREFETCH     ACCESS:          0 HIT:          0 MISS:          0
cpu0_DTLB WRITE        ACCESS:          0 HIT:          0 MISS:          0
cpu0_DTLB TRANSLATION  ACCESS:          0 HIT:          0 MISS:          0
cpu0_DTLB PREFETCH REQUESTED:          0 ISSUED:          0 USEFUL:          0 USELESS:          0
cpu0_DTLB AVERAGE MISS LATENCY: 43.72 cycles
cpu0_ITLB TOTAL        ACCESS:         32 HIT:         20 MISS:         12
cpu0_ITLB LOAD         ACCESS:         32 HIT:         20 MISS:         12
cpu0_ITLB RFO          ACCESS:          0 HIT:          0 MISS:          0
cpu0_ITLB PREFETCH     ACCESS:          0 HIT:          0 MISS:          0
cpu0_ITLB WRITE        ACCESS:          0 HIT:          0 MISS:          0
cpu0_ITLB TRANSLATION  ACCESS:          0 HIT:          0 MISS:          0
cpu0_ITLB PREFETCH REQUESTED:          0 ISSUED:          0 USEFUL:          0 USELESS:          0
cpu0_ITLB AVERAGE MISS LATENCY: 151.4 cycles
cpu0_L1D TOTAL        ACCESS:   10449468 HIT:    8954661 MISS:    1494807
cpu0_L1D LOAD         ACCESS:    4196328 HIT:    3618259 MISS:     578069
cpu0_L1D RFO          ACCESS:          0 HIT:          0 MISS:          0
cpu0_L1D PREFETCH     ACCESS:    3337045 HIT:    3005056 MISS:     331989
cpu0_L1D WRITE        ACCESS:    2910293 HIT:    2331256 MISS:     579037
cpu0_L1D TRANSLATION  ACCESS:       5802 HIT:         90 MISS:       5712
cpu0_L1D PREFETCH REQUESTED:    5113577 ISSUED:    3337052 USEFUL:     116215 USELESS:       3791
cpu0_L1D AVERAGE MISS LATENCY: 113.7 cycles
cpu0_L1I TOTAL        ACCESS:         42 HIT:          7 MISS:         35
cpu0_L1I LOAD         ACCESS:         42 HIT:          7 MISS:         35
cpu0_L1I RFO          ACCESS:          0 HIT:          0 MISS:          0
cpu0_L1I PREFETCH     ACCESS:          0 HIT:          0 MISS:          0
cpu0_L1I WRITE        ACCESS:          0 HIT:          0 MISS:          0
cpu0_L1I TRANSLATION  ACCESS:          0 HIT:          0 MISS:          0
cpu0_L1I PREFETCH REQUESTED:          0 ISSUED:          0 USEFUL:          0 USELESS:          0
cpu0_L1I AVERAGE MISS LATENCY: 252 cycles
cpu0_L2C TOTAL        ACCESS:     376509 HIT:     124371 MISS:     252138
cpu0_L2C LOAD         ACCESS:      46589 HIT:       5004 MISS:      41585
cpu0_L2C RFO          ACCESS:      82419 HIT:        103 MISS:      82316
cpu0_L2C PREFETCH     ACCESS:     157763 HIT:      31262 MISS:     126501
cpu0_L2C WRITE        ACCESS:      84026 HIT:      83799 MISS:        227
cpu0_L2C TRANSLATION  ACCESS:       5712 HIT:       4203 MISS:       1509
cpu0_L2C PREFETCH REQUESTED:      37767 ISSUED:      37767 USEFUL:      15974 USELESS:       2220
cpu0_L2C AVERAGE MISS LATENCY: 1282 cycles
cpu0_STLB TOTAL        ACCESS:       6085 HIT:        314 MISS:       5771
cpu0_STLB LOAD         ACCESS:       6085 HIT:        314 MISS:       5771
cpu0_STLB RFO          ACCESS:          0 HIT:          0 MISS:          0
cpu0_STLB PREFETCH     ACCESS:          0 HIT:          0 MISS:          0
cpu0_STLB WRITE        ACCESS:          0 HIT:          0 MISS:          0
cpu0_STLB TRANSLATION  ACCESS:          0 HIT:          0 MISS:          0
cpu0_STLB PREFETCH REQUESTED:          0 ISSUED:          0 USEFUL:          0 USELESS:          0
cpu0_STLB AVERAGE MISS LATENCY: 574.7 cycles

DRAM Statistics

Channel 0 RQ ROW_BUFFER_HIT:     123740
  ROW_BUFFER_MISS:     122791
 AVG DBUS CONGESTED CYCLE: 3.884
WQ ROW_BUFFER_HIT: Channel 0 
  ROW_BUFFER_MISS:       1471
  FULL:      80789
