WARNING: physical memory size is smaller than virtual memory size.

*** ChampSim Multicore Out-of-Order Simulator ***
Warmup Instructions: 25000000
Simulation Instructions: 25000000
Number of CPUs: 1
Page size: 4096

Off-chip DRAM Size: 4 GiB Channels: 1 Width: 64-bit Data Race: 800 MT/s
Heartbeat CPU 0 instructions: 10000003 cycles: 2500108 heartbeat IPC: 4 cumulative IPC: 4 (Simulation time: 00 hr 00 min 49 sec)
Heartbeat CPU 0 instructions: 20000003 cycles: 5000108 heartbeat IPC: 4 cumulative IPC: 4 (Simulation time: 00 hr 01 min 38 sec)
Warmup finished CPU 0 instructions: 25000003 cycles: 6250109 cumulative IPC: 4 (Simulation time: 00 hr 02 min 02 sec)
Warmup complete CPU 0 instructions: 25000003 cycles: 6250109 cumulative IPC: 4 (Simulation time: 00 hr 02 min 02 sec)
Heartbeat CPU 0 instructions: 30000000 cycles: 24148788 heartbeat IPC: 0.5222 cumulative IPC: 0.2794 (Simulation time: 00 hr 05 min 17 sec)
Heartbeat CPU 0 instructions: 40000002 cycles: 52864461 heartbeat IPC: 0.3482 cumulative IPC: 0.3218 (Simulation time: 00 hr 08 min 57 sec)
Heartbeat CPU 0 instructions: 50000000 cycles: 71116726 heartbeat IPC: 0.5479 cumulative IPC: 0.3854 (Simulation time: 00 hr 10 min 37 sec)
Simulation finished CPU 0 instructions: 25000001 cycles: 64866619 cumulative IPC: 0.3854 (Simulation time: 00 hr 10 min 37 sec)
Simulation complete CPU 0 instructions: 25000001 cycles: 64866619 cumulative IPC: 0.3854 (Simulation time: 00 hr 10 min 37 sec)

ChampSim completed all CPUs

=== Simulation ===
CPU 0 runs ./traces/654.roms_s-1070B.champsimtrace.xz
Region of Interest Statistics

CPU 0 cumulative IPC: 0.3854 instructions: 25000001 cycles: 64866619
CPU 0 Branch Prediction Accuracy: 99.88% MPKI: 0.06228 Average ROB Occupancy at Mispredict: 351.7
Branch type MPKI
BRANCH_DIRECT_JUMP: 0
BRANCH_INDIRECT: 0
BRANCH_CONDITIONAL: 0.0623
BRANCH_DIRECT_CALL: 0
BRANCH_INDIRECT_CALL: 0
BRANCH_RETURN: 0

LLC TOTAL        ACCESS:     728736 HIT:     165329 MISS:     563407
LLC LOAD         ACCESS:      45508 HIT:        821 MISS:      44687
LLC RFO          ACCESS:     167090 HIT:          0 MISS:     167090
LLC PREFETCH     ACCESS:     346249 HIT:        435 MISS:     345814
LLC WRITE        ACCESS:     167086 HIT:     163937 MISS:       3149
LLC TRANSLATION  ACCESS:       2803 HIT:        136 MISS:       2667
LLC PREFETCH REQUESTED:          0 ISSUED:          0 USEFUL:          0 USELESS:          0
LLC AVERAGE MISS LATENCY: 1311 cycles
cpu0_DTLB TOTAL        ACCESS:    6679427 HIT:    6619826 MISS:      59601
cpu0_DTLB LOAD         ACCESS:    6679427 HIT:    6619826 MISS:      59601
cpu0_DTLB RFO          ACCESS:          0 HIT:          0 MISS:          0
cpu0_DTLB PREFETCH     ACCESS:          0 HIT:          0 MISS:          0
cpu0_DTLB WRITE        ACCESS:          0 HIT:          0 MISS:          0
cpu0_DTLB TRANSLATION  ACCESS:          0 HIT:          0 MISS:          0
cpu0_DTLB PREFETCH REQUESTED:          0 ISSUED:          0 USEFUL:          0 USELESS:          0
cpu0_DTLB AVERAGE MISS LATENCY: 40.49 cycles
cpu0_ITLB TOTAL        ACCESS:          0 HIT:          0 MISS:          0
cpu0_ITLB LOAD         ACCESS:          0 HIT:          0 MISS:          0
cpu0_ITLB RFO          ACCESS:          0 HIT:          0 MISS:          0
cpu0_ITLB PREFETCH     ACCESS:          0 HIT:          0 MISS:          0
cpu0_ITLB WRITE        ACCESS:          0 HIT:          0 MISS:          0
cpu0_ITLB TRANSLATION  ACCESS:          0 HIT:          0 MISS:          0
cpu0_ITLB PREFETCH REQUESTED:          0 ISSUED:          0 USEFUL:          0 USELESS:          0
cpu0_ITLB AVERAGE MISS LATENCY: -nan cycles
cpu0_L1D TOTAL        ACCESS:   11286937 HIT:    5563252 MISS:    5723685
cpu0_L1D LOAD         ACCESS:    7094565 HIT:    4372625 MISS:    2721940
cpu0_L1D RFO          ACCESS:          0 HIT:          0 MISS:          0
cpu0_L1D PREFETCH     ACCESS:    2851203 HIT:    1147917 MISS:    1703286
cpu0_L1D WRITE        ACCESS:    1329057 HIT:      41722 MISS:    1287335
cpu0_L1D TRANSLATION  ACCESS:      12112 HIT:        988 MISS:      11124
cpu0_L1D PREFETCH REQUESTED:    8172020 ISSUED:    2851202 USEFUL:     326353 USELESS:       6167
cpu0_L1D AVERAGE MISS LATENCY: 70.11 cycles
cpu0_L1I TOTAL        ACCESS:          0 HIT:          0 MISS:          0
cpu0_L1I LOAD         ACCESS:          0 HIT:          0 MISS:          0
cpu0_L1I RFO          ACCESS:          0 HIT:          0 MISS:          0
cpu0_L1I PREFETCH     ACCESS:          0 HIT:          0 MISS:          0
cpu0_L1I WRITE        ACCESS:          0 HIT:          0 MISS:          0
cpu0_L1I TRANSLATION  ACCESS:          0 HIT:          0 MISS:          0
cpu0_L1I PREFETCH REQUESTED:          0 ISSUED:          0 USEFUL:          0 USELESS:          0
cpu0_L1I AVERAGE MISS LATENCY: -nan cycles
cpu0_L2C TOTAL        ACCESS:     754894 HIT:     183676 MISS:     571218
cpu0_L2C LOAD         ACCESS:      51506 HIT:       4268 MISS:      47238
cpu0_L2C RFO          ACCESS:     167090 HIT:          0 MISS:     167090
cpu0_L2C PREFETCH     ACCESS:     357012 HIT:       2932 MISS:     354080
cpu0_L2C WRITE        ACCESS:     168162 HIT:     168155 MISS:          7
cpu0_L2C TRANSLATION  ACCESS:      11124 HIT:       8321 MISS:       2803
cpu0_L2C PREFETCH REQUESTED:      24497 ISSUED:      24497 USEFUL:       4004 USELESS:       4444
cpu0_L2C AVERAGE MISS LATENCY: 1297 cycles
cpu0_STLB TOTAL        ACCESS:      12085 HIT:          6 MISS:      12079
cpu0_STLB LOAD         ACCESS:      12085 HIT:          6 MISS:      12079
cpu0_STLB RFO          ACCESS:          0 HIT:          0 MISS:          0
cpu0_STLB PREFETCH     ACCESS:          0 HIT:          0 MISS:          0
cpu0_STLB WRITE        ACCESS:          0 HIT:          0 MISS:          0
cpu0_STLB TRANSLATION  ACCESS:          0 HIT:          0 MISS:          0
cpu0_STLB PREFETCH REQUESTED:          0 ISSUED:          0 USEFUL:          0 USELESS:          0
cpu0_STLB AVERAGE MISS LATENCY: 434.3 cycles

DRAM Statistics

Channel 0 RQ ROW_BUFFER_HIT:      87868
  ROW_BUFFER_MISS:     461394
 AVG DBUS CONGESTED CYCLE: 3.964
WQ ROW_BUFFER_HIT: Channel 0 
  ROW_BUFFER_MISS:       3440
  FULL:     158331
