WARNING: physical memory size is smaller than virtual memory size.

*** ChampSim Multicore Out-of-Order Simulator ***
Warmup Instructions: 25000000
Simulation Instructions: 25000000
Number of CPUs: 1
Page size: 4096

Off-chip DRAM Size: 4 GiB Channels: 1 Width: 64-bit Data Race: 800 MT/s
Heartbeat CPU 0 instructions: 10000002 cycles: 2500084 heartbeat IPC: 4 cumulative IPC: 4 (Simulation time: 00 hr 00 min 37 sec)
Heartbeat CPU 0 instructions: 20000002 cycles: 5000084 heartbeat IPC: 4 cumulative IPC: 4 (Simulation time: 00 hr 01 min 14 sec)
Warmup finished CPU 0 instructions: 25000002 cycles: 6250085 cumulative IPC: 4 (Simulation time: 00 hr 01 min 33 sec)
Warmup complete CPU 0 instructions: 25000002 cycles: 6250085 cumulative IPC: 4 (Simulation time: 00 hr 01 min 33 sec)
Heartbeat CPU 0 instructions: 30000002 cycles: 7868347 heartbeat IPC: 3.486 cumulative IPC: 3.09 (Simulation time: 00 hr 01 min 55 sec)
Heartbeat CPU 0 instructions: 40000002 cycles: 11119751 heartbeat IPC: 3.076 cumulative IPC: 3.08 (Simulation time: 00 hr 02 min 40 sec)
Heartbeat CPU 0 instructions: 50000003 cycles: 28949463 heartbeat IPC: 0.5609 cumulative IPC: 1.101 (Simulation time: 00 hr 05 min 13 sec)
Simulation finished CPU 0 instructions: 25000001 cycles: 22699379 cumulative IPC: 1.101 (Simulation time: 00 hr 05 min 13 sec)
Simulation complete CPU 0 instructions: 25000001 cycles: 22699379 cumulative IPC: 1.101 (Simulation time: 00 hr 05 min 13 sec)

ChampSim completed all CPUs

=== Simulation ===
CPU 0 runs ./traces/654.roms_s-1613B.champsimtrace.xz
Region of Interest Statistics

CPU 0 cumulative IPC: 1.101 instructions: 25000001 cycles: 22699379
CPU 0 Branch Prediction Accuracy: 87.17% MPKI: 13.24 Average ROB Occupancy at Mispredict: 73.36
Branch type MPKI
BRANCH_DIRECT_JUMP: 0.00032
BRANCH_INDIRECT: 0
BRANCH_CONDITIONAL: 6.64
BRANCH_DIRECT_CALL: 0.00032
BRANCH_INDIRECT_CALL: 0
BRANCH_RETURN: 6.6

LLC TOTAL        ACCESS:     348936 HIT:      60438 MISS:     288498
LLC LOAD         ACCESS:      54346 HIT:       1595 MISS:      52751
LLC RFO          ACCESS:      76904 HIT:          0 MISS:      76904
LLC PREFETCH     ACCESS:     139779 HIT:       2270 MISS:     137509
LLC WRITE        ACCESS:      77036 HIT:      56455 MISS:      20581
LLC TRANSLATION  ACCESS:        871 HIT:        118 MISS:        753
LLC PREFETCH REQUESTED:          0 ISSUED:          0 USEFUL:          0 USELESS:          0
LLC AVERAGE MISS LATENCY: 801.4 cycles
cpu0_DTLB TOTAL        ACCESS:    4870450 HIT:    4836305 MISS:      34145
cpu0_DTLB LOAD         ACCESS:    4870450 HIT:    4836305 MISS:      34145
cpu0_DTLB RFO          ACCESS:          0 HIT:          0 MISS:          0
cpu0_DTLB PREFETCH     ACCESS:          0 HIT:          0 MISS:          0
cpu0_DTLB WRITE        ACCESS:          0 HIT:          0 MISS:          0
cpu0_DTLB TRANSLATION  ACCESS:          0 HIT:          0 MISS:          0
cpu0_DTLB PREFETCH REQUESTED:          0 ISSUED:          0 USEFUL:          0 USELESS:          0
cpu0_DTLB AVERAGE MISS LATENCY: 31.27 cycles
cpu0_ITLB TOTAL        ACCESS:        127 HIT:        117 MISS:         10
cpu0_ITLB LOAD         ACCESS:        127 HIT:        117 MISS:         10
cpu0_ITLB RFO          ACCESS:          0 HIT:          0 MISS:          0
cpu0_ITLB PREFETCH     ACCESS:          0 HIT:          0 MISS:          0
cpu0_ITLB WRITE        ACCESS:          0 HIT:          0 MISS:          0
cpu0_ITLB TRANSLATION  ACCESS:          0 HIT:          0 MISS:          0
cpu0_ITLB PREFETCH REQUESTED:          0 ISSUED:          0 USEFUL:          0 USELESS:          0
cpu0_ITLB AVERAGE MISS LATENCY: 481.1 cycles
cpu0_L1D TOTAL        ACCESS:   10271887 HIT:    8922693 MISS:    1349194
cpu0_L1D LOAD         ACCESS:    3942955 HIT:    3470922 MISS:     472033
cpu0_L1D RFO          ACCESS:          0 HIT:          0 MISS:          0
cpu0_L1D PREFETCH     ACCESS:    3569578 HIT:    3245440 MISS:     324138
cpu0_L1D WRITE        ACCESS:    2755416 HIT:    2204714 MISS:     550702
cpu0_L1D TRANSLATION  ACCESS:       3938 HIT:       1617 MISS:       2321
cpu0_L1D PREFETCH REQUESTED:    7626807 ISSUED:    3569587 USEFUL:      48375 USELESS:       2270
cpu0_L1D AVERAGE MISS LATENCY: 142.4 cycles
cpu0_L1I TOTAL        ACCESS:        149 HIT:         55 MISS:         94
cpu0_L1I LOAD         ACCESS:        149 HIT:         55 MISS:         94
cpu0_L1I RFO          ACCESS:          0 HIT:          0 MISS:          0
cpu0_L1I PREFETCH     ACCESS:          0 HIT:          0 MISS:          0
cpu0_L1I WRITE        ACCESS:          0 HIT:          0 MISS:          0
cpu0_L1I TRANSLATION  ACCESS:          0 HIT:          0 MISS:          0
cpu0_L1I PREFETCH REQUESTED:          0 ISSUED:          0 USEFUL:          0 USELESS:          0
cpu0_L1I AVERAGE MISS LATENCY: 322.1 cycles
cpu0_L2C TOTAL        ACCESS:     417843 HIT:     109799 MISS:     308044
cpu0_L2C LOAD         ACCESS:      68149 HIT:       1773 MISS:      66376
cpu0_L2C RFO          ACCESS:      76980 HIT:         76 MISS:      76904
cpu0_L2C PREFETCH     ACCESS:     192720 HIT:      29043 MISS:     163677
cpu0_L2C WRITE        ACCESS:      77674 HIT:      77458 MISS:        216
cpu0_L2C TRANSLATION  ACCESS:       2320 HIT:       1449 MISS:        871
cpu0_L2C PREFETCH REQUESTED:     142076 ISSUED:     142076 USEFUL:      23797 USELESS:       5292
cpu0_L2C AVERAGE MISS LATENCY: 718.4 cycles
cpu0_STLB TOTAL        ACCESS:       4216 HIT:        297 MISS:       3919
cpu0_STLB LOAD         ACCESS:       4216 HIT:        297 MISS:       3919
cpu0_STLB RFO          ACCESS:          0 HIT:          0 MISS:          0
cpu0_STLB PREFETCH     ACCESS:          0 HIT:          0 MISS:          0
cpu0_STLB WRITE        ACCESS:          0 HIT:          0 MISS:          0
cpu0_STLB TRANSLATION  ACCESS:          0 HIT:          0 MISS:          0
cpu0_STLB PREFETCH REQUESTED:          0 ISSUED:          0 USEFUL:          0 USELESS:          0
cpu0_STLB AVERAGE MISS LATENCY: 525.8 cycles

DRAM Statistics

Channel 0 RQ ROW_BUFFER_HIT:      80325
  ROW_BUFFER_MISS:     115080
 AVG DBUS CONGESTED CYCLE: 3.929
WQ ROW_BUFFER_HIT: Channel 0 
  ROW_BUFFER_MISS:       1619
  FULL:      72032
