WARNING: physical memory size is smaller than virtual memory size.

*** ChampSim Multicore Out-of-Order Simulator ***
Warmup Instructions: 25000000
Simulation Instructions: 25000000
Number of CPUs: 1
Page size: 4096

Off-chip DRAM Size: 4 GiB Channels: 1 Width: 64-bit Data Race: 800 MT/s
Heartbeat CPU 0 instructions: 10000000 cycles: 2500349 heartbeat IPC: 3.999 cumulative IPC: 3.999 (Simulation time: 00 hr 00 min 37 sec)
Heartbeat CPU 0 instructions: 20000000 cycles: 5000349 heartbeat IPC: 4 cumulative IPC: 4 (Simulation time: 00 hr 01 min 14 sec)
Warmup finished CPU 0 instructions: 25000000 cycles: 6250350 cumulative IPC: 4 (Simulation time: 00 hr 01 min 35 sec)
Warmup complete CPU 0 instructions: 25000000 cycles: 6250350 cumulative IPC: 4 (Simulation time: 00 hr 01 min 35 sec)
Heartbeat CPU 0 instructions: 30000003 cycles: 20476342 heartbeat IPC: 0.6462 cumulative IPC: 0.3515 (Simulation time: 00 hr 03 min 51 sec)
Heartbeat CPU 0 instructions: 40000003 cycles: 48992924 heartbeat IPC: 0.3507 cumulative IPC: 0.3509 (Simulation time: 00 hr 06 min 37 sec)
Heartbeat CPU 0 instructions: 50000002 cycles: 68388641 heartbeat IPC: 0.5156 cumulative IPC: 0.4023 (Simulation time: 00 hr 08 min 08 sec)
Simulation finished CPU 0 instructions: 25000002 cycles: 62138292 cumulative IPC: 0.4023 (Simulation time: 00 hr 08 min 08 sec)
Simulation complete CPU 0 instructions: 25000002 cycles: 62138292 cumulative IPC: 0.4023 (Simulation time: 00 hr 08 min 08 sec)

ChampSim completed all CPUs

=== Simulation ===
CPU 0 runs ./traces/654.roms_s-523B.champsimtrace.xz
Region of Interest Statistics

CPU 0 cumulative IPC: 0.4023 instructions: 25000002 cycles: 62138292
CPU 0 Branch Prediction Accuracy: 99.85% MPKI: 0.09976 Average ROB Occupancy at Mispredict: 350.4
Branch type MPKI
BRANCH_DIRECT_JUMP: 4e-05
BRANCH_INDIRECT: 0
BRANCH_CONDITIONAL: 0.0997
BRANCH_DIRECT_CALL: 0
BRANCH_INDIRECT_CALL: 0
BRANCH_RETURN: 0

LLC TOTAL        ACCESS:     895718 HIT:     165369 MISS:     730349
LLC LOAD         ACCESS:     117911 HIT:        443 MISS:     117468
LLC RFO          ACCESS:     155876 HIT:          0 MISS:     155876
LLC PREFETCH     ACCESS:     394985 HIT:       1218 MISS:     393767
LLC WRITE        ACCESS:     222627 HIT:     163266 MISS:      59361
LLC TRANSLATION  ACCESS:       4319 HIT:        442 MISS:       3877
LLC PREFETCH REQUESTED:          0 ISSUED:          0 USEFUL:          0 USELESS:          0
LLC AVERAGE MISS LATENCY: 973.5 cycles
cpu0_DTLB TOTAL        ACCESS:    6771388 HIT:    6680647 MISS:      90741
cpu0_DTLB LOAD         ACCESS:    6771388 HIT:    6680647 MISS:      90741
cpu0_DTLB RFO          ACCESS:          0 HIT:          0 MISS:          0
cpu0_DTLB PREFETCH     ACCESS:          0 HIT:          0 MISS:          0
cpu0_DTLB WRITE        ACCESS:          0 HIT:          0 MISS:          0
cpu0_DTLB TRANSLATION  ACCESS:          0 HIT:          0 MISS:          0
cpu0_DTLB PREFETCH REQUESTED:          0 ISSUED:          0 USEFUL:          0 USELESS:          0
cpu0_DTLB AVERAGE MISS LATENCY: 40.32 cycles
cpu0_ITLB TOTAL        ACCESS:         32 HIT:         32 MISS:          0
cpu0_ITLB LOAD         ACCESS:         32 HIT:         32 MISS:          0
cpu0_ITLB RFO          ACCESS:          0 HIT:          0 MISS:          0
cpu0_ITLB PREFETCH     ACCESS:          0 HIT:          0 MISS:          0
cpu0_ITLB WRITE        ACCESS:          0 HIT:          0 MISS:          0
cpu0_ITLB TRANSLATION  ACCESS:          0 HIT:          0 MISS:          0
cpu0_ITLB PREFETCH REQUESTED:          0 ISSUED:          0 USEFUL:          0 USELESS:          0
cpu0_ITLB AVERAGE MISS LATENCY: -nan cycles
cpu0_L1D TOTAL        ACCESS:   11921274 HIT:    5034678 MISS:    6886596
cpu0_L1D LOAD         ACCESS:    7279926 HIT:    3516085 MISS:    3763841
cpu0_L1D RFO          ACCESS:          0 HIT:          0 MISS:          0
cpu0_L1D PREFETCH     ACCESS:    2856238 HIT:     941604 MISS:    1914634
cpu0_L1D WRITE        ACCESS:    1769188 HIT:     574153 MISS:    1195035
cpu0_L1D TRANSLATION  ACCESS:      15922 HIT:       2836 MISS:      13086
cpu0_L1D PREFETCH REQUESTED:    7874035 ISSUED:    2856238 USEFUL:     394558 USELESS:      11061
cpu0_L1D AVERAGE MISS LATENCY: 60.9 cycles
cpu0_L1I TOTAL        ACCESS:         36 HIT:          6 MISS:         30
cpu0_L1I LOAD         ACCESS:         36 HIT:          6 MISS:         30
cpu0_L1I RFO          ACCESS:          0 HIT:          0 MISS:          0
cpu0_L1I PREFETCH     ACCESS:          0 HIT:          0 MISS:          0
cpu0_L1I WRITE        ACCESS:          0 HIT:          0 MISS:          0
cpu0_L1I TRANSLATION  ACCESS:          0 HIT:          0 MISS:          0
cpu0_L1I PREFETCH REQUESTED:          0 ISSUED:          0 USEFUL:          0 USELESS:          0
cpu0_L1I AVERAGE MISS LATENCY: 787.6 cycles
cpu0_L2C TOTAL        ACCESS:     996528 HIT:     281465 MISS:     715063
cpu0_L2C LOAD         ACCESS:     139163 HIT:      15567 MISS:     123596
cpu0_L2C RFO          ACCESS:     155877 HIT:          1 MISS:     155876
cpu0_L2C PREFETCH     ACCESS:     464683 HIT:      33424 MISS:     431259
cpu0_L2C WRITE        ACCESS:     223722 HIT:     223709 MISS:         13
cpu0_L2C TRANSLATION  ACCESS:      13083 HIT:       8764 MISS:       4319
cpu0_L2C PREFETCH REQUESTED:      59061 ISSUED:      59061 USEFUL:      25165 USELESS:      16311
cpu0_L2C AVERAGE MISS LATENCY: 1010 cycles
cpu0_STLB TOTAL        ACCESS:      15890 HIT:         12 MISS:      15878
cpu0_STLB LOAD         ACCESS:      15890 HIT:         12 MISS:      15878
cpu0_STLB RFO          ACCESS:          0 HIT:          0 MISS:          0
cpu0_STLB PREFETCH     ACCESS:          0 HIT:          0 MISS:          0
cpu0_STLB WRITE        ACCESS:          0 HIT:          0 MISS:          0
cpu0_STLB TRANSLATION  ACCESS:          0 HIT:          0 MISS:          0
cpu0_STLB PREFETCH REQUESTED:          0 ISSUED:          0 USEFUL:          0 USELESS:          0
cpu0_STLB AVERAGE MISS LATENCY: 439.1 cycles

DRAM Statistics

Channel 0 RQ ROW_BUFFER_HIT:     171274
  ROW_BUFFER_MISS:     499085
 AVG DBUS CONGESTED CYCLE: 3.921
WQ ROW_BUFFER_HIT: Channel 0 
  ROW_BUFFER_MISS:       2333
  FULL:     217347
