WARNING: physical memory size is smaller than virtual memory size.

*** ChampSim Multicore Out-of-Order Simulator ***
Warmup Instructions: 25000000
Simulation Instructions: 25000000
Number of CPUs: 1
Page size: 4096

Off-chip DRAM Size: 4 GiB Channels: 1 Width: 64-bit Data Race: 800 MT/s
Heartbeat CPU 0 instructions: 10000000 cycles: 2500090 heartbeat IPC: 4 cumulative IPC: 4 (Simulation time: 00 hr 00 min 37 sec)
Heartbeat CPU 0 instructions: 20000000 cycles: 5000090 heartbeat IPC: 4 cumulative IPC: 4 (Simulation time: 00 hr 01 min 15 sec)
Warmup finished CPU 0 instructions: 25000000 cycles: 6250091 cumulative IPC: 4 (Simulation time: 00 hr 01 min 34 sec)
Warmup complete CPU 0 instructions: 25000000 cycles: 6250091 cumulative IPC: 4 (Simulation time: 00 hr 01 min 34 sec)
Heartbeat CPU 0 instructions: 30000000 cycles: 7922593 heartbeat IPC: 3.422 cumulative IPC: 2.99 (Simulation time: 00 hr 01 min 57 sec)
Heartbeat CPU 0 instructions: 40000001 cycles: 11256468 heartbeat IPC: 3 cumulative IPC: 2.996 (Simulation time: 00 hr 02 min 44 sec)
Heartbeat CPU 0 instructions: 50000003 cycles: 34611734 heartbeat IPC: 0.4282 cumulative IPC: 0.8815 (Simulation time: 00 hr 06 min 14 sec)
Simulation finished CPU 0 instructions: 25000003 cycles: 28361644 cumulative IPC: 0.8815 (Simulation time: 00 hr 06 min 14 sec)
Simulation complete CPU 0 instructions: 25000003 cycles: 28361644 cumulative IPC: 0.8815 (Simulation time: 00 hr 06 min 14 sec)

ChampSim completed all CPUs

=== Simulation ===
CPU 0 runs ./traces/654.roms_s-1007B.champsimtrace.xz
Region of Interest Statistics

CPU 0 cumulative IPC: 0.8815 instructions: 25000003 cycles: 28361644
CPU 0 Branch Prediction Accuracy: 86.84% MPKI: 12.49 Average ROB Occupancy at Mispredict: 67.96
Branch type MPKI
BRANCH_DIRECT_JUMP: 0.00016
BRANCH_INDIRECT: 0
BRANCH_CONDITIONAL: 6.26
BRANCH_DIRECT_CALL: 8e-05
BRANCH_INDIRECT_CALL: 0
BRANCH_RETURN: 6.23

LLC TOTAL        ACCESS:     331640 HIT:      63095 MISS:     268545
LLC LOAD         ACCESS:      40628 HIT:        454 MISS:      40174
LLC RFO          ACCESS:      82310 HIT:          0 MISS:      82310
LLC PREFETCH     ACCESS:     124420 HIT:       1365 MISS:     123055
LLC WRITE        ACCESS:      82773 HIT:      61204 MISS:      21569
LLC TRANSLATION  ACCESS:       1509 HIT:         72 MISS:       1437
LLC PREFETCH REQUESTED:          0 ISSUED:          0 USEFUL:          0 USELESS:          0
LLC AVERAGE MISS LATENCY: 1186 cycles
cpu0_DTLB TOTAL        ACCESS:    5470952 HIT:    5433937 MISS:      37015
cpu0_DTLB LOAD         ACCESS:    5470952 HIT:    5433937 MISS:      37015
cpu0_DTLB RFO          ACCESS:          0 HIT:          0 MISS:          0
cpu0_DTLB PREFETCH     ACCESS:          0 HIT:          0 MISS:          0
cpu0_DTLB WRITE        ACCESS:          0 HIT:          0 MISS:          0
cpu0_DTLB TRANSLATION  ACCESS:          0 HIT:          0 MISS:          0
cpu0_DTLB PREFETCH REQUESTED:          0 ISSUED:          0 USEFUL:          0 USELESS:          0
cpu0_DTLB AVERAGE MISS LATENCY: 46.78 cycles
cpu0_ITLB TOTAL        ACCESS:         32 HIT:         20 MISS:         12
cpu0_ITLB LOAD         ACCESS:         32 HIT:         20 MISS:         12
cpu0_ITLB RFO          ACCESS:          0 HIT:          0 MISS:          0
cpu0_ITLB PREFETCH     ACCESS:          0 HIT:          0 MISS:          0
cpu0_ITLB WRITE        ACCESS:          0 HIT:          0 MISS:          0
cpu0_ITLB TRANSLATION  ACCESS:          0 HIT:          0 MISS:          0
cpu0_ITLB PREFETCH REQUESTED:          0 ISSUED:          0 USEFUL:          0 USELESS:          0
cpu0_ITLB AVERAGE MISS LATENCY: 151.4 cycles
cpu0_L1D TOTAL        ACCESS:   10445593 HIT:    8948478 MISS:    1497115
cpu0_L1D LOAD         ACCESS:    4193383 HIT:    3614039 MISS:     579344
cpu0_L1D RFO          ACCESS:          0 HIT:          0 MISS:          0
cpu0_L1D PREFETCH     ACCESS:    3336129 HIT:    3003461 MISS:     332668
cpu0_L1D WRITE        ACCESS:    2910279 HIT:    2330887 MISS:     579392
cpu0_L1D TRANSLATION  ACCESS:       5802 HIT:         91 MISS:       5711
cpu0_L1D PREFETCH REQUESTED:    5077050 ISSUED:    3336136 USEFUL:     116632 USELESS:       3774
cpu0_L1D AVERAGE MISS LATENCY: 112.2 cycles
cpu0_L1I TOTAL        ACCESS:         42 HIT:          7 MISS:         35
cpu0_L1I LOAD         ACCESS:         42 HIT:          7 MISS:         35
cpu0_L1I RFO          ACCESS:          0 HIT:          0 MISS:          0
cpu0_L1I PREFETCH     ACCESS:          0 HIT:          0 MISS:          0
cpu0_L1I WRITE        ACCESS:          0 HIT:          0 MISS:          0
cpu0_L1I TRANSLATION  ACCESS:          0 HIT:          0 MISS:          0
cpu0_L1I PREFETCH REQUESTED:          0 ISSUED:          0 USEFUL:          0 USELESS:          0
cpu0_L1I AVERAGE MISS LATENCY: 263.4 cycles
cpu0_L2C TOTAL        ACCESS:     376608 HIT:     124526 MISS:     252082
cpu0_L2C LOAD         ACCESS:      46174 HIT:       4832 MISS:      41342
cpu0_L2C RFO          ACCESS:      82418 HIT:        106 MISS:      82312
cpu0_L2C PREFETCH     ACCESS:     158278 HIT:      31587 MISS:     126691
cpu0_L2C WRITE        ACCESS:      84027 HIT:      83799 MISS:        228
cpu0_L2C TRANSLATION  ACCESS:       5711 HIT:       4202 MISS:       1509
cpu0_L2C PREFETCH REQUESTED:      37880 ISSUED:      37880 USEFUL:      15881 USELESS:       2172
cpu0_L2C AVERAGE MISS LATENCY: 1269 cycles
cpu0_STLB TOTAL        ACCESS:       6081 HIT:        310 MISS:       5771
cpu0_STLB LOAD         ACCESS:       6081 HIT:        310 MISS:       5771
cpu0_STLB RFO          ACCESS:          0 HIT:          0 MISS:          0
cpu0_STLB PREFETCH     ACCESS:          0 HIT:          0 MISS:          0
cpu0_STLB WRITE        ACCESS:          0 HIT:          0 MISS:          0
cpu0_STLB TRANSLATION  ACCESS:          0 HIT:          0 MISS:          0
cpu0_STLB PREFETCH REQUESTED:          0 ISSUED:          0 USEFUL:          0 USELESS:          0
cpu0_STLB AVERAGE MISS LATENCY: 584.1 cycles

DRAM Statistics

Channel 0 RQ ROW_BUFFER_HIT:     124504
  ROW_BUFFER_MISS:     122133
 AVG DBUS CONGESTED CYCLE: 3.884
WQ ROW_BUFFER_HIT: Channel 0 
  ROW_BUFFER_MISS:       1587
  FULL:      79170
