WARNING: physical memory size is smaller than virtual memory size.

*** ChampSim Multicore Out-of-Order Simulator ***
Warmup Instructions: 25000000
Simulation Instructions: 25000000
Number of CPUs: 1
Page size: 4096

Off-chip DRAM Size: 4 GiB Channels: 1 Width: 64-bit Data Race: 800 MT/s
Heartbeat CPU 0 instructions: 10000003 cycles: 2500448 heartbeat IPC: 3.999 cumulative IPC: 3.999 (Simulation time: 00 hr 00 min 39 sec)
Heartbeat CPU 0 instructions: 20000003 cycles: 5001150 heartbeat IPC: 3.999 cumulative IPC: 3.999 (Simulation time: 00 hr 01 min 18 sec)
Warmup finished CPU 0 instructions: 25000003 cycles: 6251151 cumulative IPC: 3.999 (Simulation time: 00 hr 01 min 38 sec)
Warmup complete CPU 0 instructions: 25000003 cycles: 6251151 cumulative IPC: 3.999 (Simulation time: 00 hr 01 min 38 sec)
Heartbeat CPU 0 instructions: 30000002 cycles: 9201950 heartbeat IPC: 2.38 cumulative IPC: 1.694 (Simulation time: 00 hr 02 min 16 sec)
Heartbeat CPU 0 instructions: 40000000 cycles: 16206307 heartbeat IPC: 1.428 cumulative IPC: 1.507 (Simulation time: 00 hr 03 min 40 sec)
Heartbeat CPU 0 instructions: 50000002 cycles: 21312539 heartbeat IPC: 1.958 cumulative IPC: 1.66 (Simulation time: 00 hr 04 min 45 sec)
Simulation finished CPU 0 instructions: 25000003 cycles: 15061390 cumulative IPC: 1.66 (Simulation time: 00 hr 04 min 45 sec)
Simulation complete CPU 0 instructions: 25000003 cycles: 15061390 cumulative IPC: 1.66 (Simulation time: 00 hr 04 min 45 sec)

ChampSim completed all CPUs

=== Simulation ===
CPU 0 runs ./traces/654.roms_s-293B.champsimtrace.xz
Region of Interest Statistics

CPU 0 cumulative IPC: 1.66 instructions: 25000003 cycles: 15061390
CPU 0 Branch Prediction Accuracy: 99.8% MPKI: 0.02352 Average ROB Occupancy at Mispredict: 346.6
Branch type MPKI
BRANCH_DIRECT_JUMP: 0
BRANCH_INDIRECT: 0
BRANCH_CONDITIONAL: 0.0235
BRANCH_DIRECT_CALL: 0
BRANCH_INDIRECT_CALL: 0
BRANCH_RETURN: 0

LLC TOTAL        ACCESS:     394050 HIT:     256411 MISS:     137639
LLC LOAD         ACCESS:      29029 HIT:      19428 MISS:       9601
LLC RFO          ACCESS:     128292 HIT:      65179 MISS:      63113
LLC PREFETCH     ACCESS:     107462 HIT:      60322 MISS:      47140
LLC WRITE        ACCESS:     125776 HIT:     111225 MISS:      14551
LLC TRANSLATION  ACCESS:       3491 HIT:        257 MISS:       3234
LLC PREFETCH REQUESTED:          0 ISSUED:          0 USEFUL:          0 USELESS:          0
LLC AVERAGE MISS LATENCY: 734.5 cycles
cpu0_DTLB TOTAL        ACCESS:    5864406 HIT:    5841587 MISS:      22819
cpu0_DTLB LOAD         ACCESS:    5864406 HIT:    5841587 MISS:      22819
cpu0_DTLB RFO          ACCESS:          0 HIT:          0 MISS:          0
cpu0_DTLB PREFETCH     ACCESS:          0 HIT:          0 MISS:          0
cpu0_DTLB WRITE        ACCESS:          0 HIT:          0 MISS:          0
cpu0_DTLB TRANSLATION  ACCESS:          0 HIT:          0 MISS:          0
cpu0_DTLB PREFETCH REQUESTED:          0 ISSUED:          0 USEFUL:          0 USELESS:          0
cpu0_DTLB AVERAGE MISS LATENCY: 103.3 cycles
cpu0_ITLB TOTAL        ACCESS:        290 HIT:        290 MISS:          0
cpu0_ITLB LOAD         ACCESS:        290 HIT:        290 MISS:          0
cpu0_ITLB RFO          ACCESS:          0 HIT:          0 MISS:          0
cpu0_ITLB PREFETCH     ACCESS:          0 HIT:          0 MISS:          0
cpu0_ITLB WRITE        ACCESS:          0 HIT:          0 MISS:          0
cpu0_ITLB TRANSLATION  ACCESS:          0 HIT:          0 MISS:          0
cpu0_ITLB PREFETCH REQUESTED:          0 ISSUED:          0 USEFUL:          0 USELESS:          0
cpu0_ITLB AVERAGE MISS LATENCY: -nan cycles
cpu0_L1D TOTAL        ACCESS:    9658321 HIT:    8677893 MISS:     980428
cpu0_L1D LOAD         ACCESS:    4573663 HIT:    4329148 MISS:     244515
cpu0_L1D RFO          ACCESS:          0 HIT:          0 MISS:          0
cpu0_L1D PREFETCH     ACCESS:    2720554 HIT:    2491814 MISS:     228740
cpu0_L1D WRITE        ACCESS:    2360485 HIT:    1856900 MISS:     503585
cpu0_L1D TRANSLATION  ACCESS:       3619 HIT:         31 MISS:       3588
cpu0_L1D PREFETCH REQUESTED:    5041429 ISSUED:    2720555 USEFUL:      71263 USELESS:       2528
cpu0_L1D AVERAGE MISS LATENCY: 76.11 cycles
cpu0_L1I TOTAL        ACCESS:        392 HIT:        392 MISS:          0
cpu0_L1I LOAD         ACCESS:        392 HIT:        392 MISS:          0
cpu0_L1I RFO          ACCESS:          0 HIT:          0 MISS:          0
cpu0_L1I PREFETCH     ACCESS:          0 HIT:          0 MISS:          0
cpu0_L1I WRITE        ACCESS:          0 HIT:          0 MISS:          0
cpu0_L1I TRANSLATION  ACCESS:          0 HIT:          0 MISS:          0
cpu0_L1I PREFETCH REQUESTED:          0 ISSUED:          0 USEFUL:          0 USELESS:          0
cpu0_L1I AVERAGE MISS LATENCY: -nan cycles
cpu0_L2C TOTAL        ACCESS:     563295 HIT:     277358 MISS:     285937
cpu0_L2C LOAD         ACCESS:      90743 HIT:      56954 MISS:      33789
cpu0_L2C RFO          ACCESS:     128530 HIT:        237 MISS:     128293
cpu0_L2C PREFETCH     ACCESS:     211763 HIT:      91774 MISS:     119989
cpu0_L2C WRITE        ACCESS:     128689 HIT:     128314 MISS:        375
cpu0_L2C TRANSLATION  ACCESS:       3570 HIT:         79 MISS:       3491
cpu0_L2C PREFETCH REQUESTED:     137967 ISSUED:     137967 USEFUL:      43755 USELESS:       2593
cpu0_L2C AVERAGE MISS LATENCY: 368.7 cycles
cpu0_STLB TOTAL        ACCESS:       6304 HIT:       3932 MISS:       2372
cpu0_STLB LOAD         ACCESS:       6304 HIT:       3932 MISS:       2372
cpu0_STLB RFO          ACCESS:          0 HIT:          0 MISS:          0
cpu0_STLB PREFETCH     ACCESS:          0 HIT:          0 MISS:          0
cpu0_STLB WRITE        ACCESS:          0 HIT:          0 MISS:          0
cpu0_STLB TRANSLATION  ACCESS:          0 HIT:          0 MISS:          0
cpu0_STLB PREFETCH REQUESTED:          0 ISSUED:          0 USEFUL:          0 USELESS:          0
cpu0_STLB AVERAGE MISS LATENCY: 1428 cycles

DRAM Statistics

Channel 0 RQ ROW_BUFFER_HIT:      37921
  ROW_BUFFER_MISS:      84803
 AVG DBUS CONGESTED CYCLE: 3.935
WQ ROW_BUFFER_HIT: Channel 0 
  ROW_BUFFER_MISS:       1102
  FULL:      55679
