WARNING: physical memory size is smaller than virtual memory size.

*** ChampSim Multicore Out-of-Order Simulator ***
Warmup Instructions: 25000000
Simulation Instructions: 25000000
Number of CPUs: 1
Page size: 4096

Off-chip DRAM Size: 4 GiB Channels: 1 Width: 64-bit Data Race: 800 MT/s
Heartbeat CPU 0 instructions: 10000003 cycles: 2500108 heartbeat IPC: 4 cumulative IPC: 4 (Simulation time: 00 hr 00 min 41 sec)
Heartbeat CPU 0 instructions: 20000003 cycles: 5000108 heartbeat IPC: 4 cumulative IPC: 4 (Simulation time: 00 hr 01 min 22 sec)
Warmup finished CPU 0 instructions: 25000003 cycles: 6250109 cumulative IPC: 4 (Simulation time: 00 hr 01 min 42 sec)
Warmup complete CPU 0 instructions: 25000003 cycles: 6250109 cumulative IPC: 4 (Simulation time: 00 hr 01 min 42 sec)
Heartbeat CPU 0 instructions: 30000000 cycles: 23779418 heartbeat IPC: 0.5325 cumulative IPC: 0.2852 (Simulation time: 00 hr 04 min 28 sec)
Heartbeat CPU 0 instructions: 40000000 cycles: 53096083 heartbeat IPC: 0.3411 cumulative IPC: 0.3202 (Simulation time: 00 hr 07 min 33 sec)
Heartbeat CPU 0 instructions: 50000000 cycles: 71736622 heartbeat IPC: 0.5365 cumulative IPC: 0.3818 (Simulation time: 00 hr 09 min 01 sec)
Simulation finished CPU 0 instructions: 25000001 cycles: 65486515 cumulative IPC: 0.3818 (Simulation time: 00 hr 09 min 01 sec)
Simulation complete CPU 0 instructions: 25000001 cycles: 65486515 cumulative IPC: 0.3818 (Simulation time: 00 hr 09 min 01 sec)

ChampSim completed all CPUs

=== Simulation ===
CPU 0 runs ./traces/654.roms_s-1070B.champsimtrace.xz
Region of Interest Statistics

CPU 0 cumulative IPC: 0.3818 instructions: 25000001 cycles: 65486515
CPU 0 Branch Prediction Accuracy: 99.88% MPKI: 0.06228 Average ROB Occupancy at Mispredict: 351.7
Branch type MPKI
BRANCH_DIRECT_JUMP: 0
BRANCH_INDIRECT: 0
BRANCH_CONDITIONAL: 0.0623
BRANCH_DIRECT_CALL: 0
BRANCH_INDIRECT_CALL: 0
BRANCH_RETURN: 0

LLC TOTAL        ACCESS:     727568 HIT:     125722 MISS:     601846
LLC LOAD         ACCESS:      45783 HIT:        657 MISS:      45126
LLC RFO          ACCESS:     167090 HIT:          0 MISS:     167090
LLC PREFETCH     ACCESS:     344803 HIT:        328 MISS:     344475
LLC WRITE        ACCESS:     167086 HIT:     124476 MISS:      42610
LLC TRANSLATION  ACCESS:       2806 HIT:        261 MISS:       2545
LLC PREFETCH REQUESTED:          0 ISSUED:          0 USEFUL:          0 USELESS:          0
LLC AVERAGE MISS LATENCY: 1234 cycles
cpu0_DTLB TOTAL        ACCESS:    6679257 HIT:    6619719 MISS:      59538
cpu0_DTLB LOAD         ACCESS:    6679257 HIT:    6619719 MISS:      59538
cpu0_DTLB RFO          ACCESS:          0 HIT:          0 MISS:          0
cpu0_DTLB PREFETCH     ACCESS:          0 HIT:          0 MISS:          0
cpu0_DTLB WRITE        ACCESS:          0 HIT:          0 MISS:          0
cpu0_DTLB TRANSLATION  ACCESS:          0 HIT:          0 MISS:          0
cpu0_DTLB PREFETCH REQUESTED:          0 ISSUED:          0 USEFUL:          0 USELESS:          0
cpu0_DTLB AVERAGE MISS LATENCY: 40.42 cycles
cpu0_ITLB TOTAL        ACCESS:          0 HIT:          0 MISS:          0
cpu0_ITLB LOAD         ACCESS:          0 HIT:          0 MISS:          0
cpu0_ITLB RFO          ACCESS:          0 HIT:          0 MISS:          0
cpu0_ITLB PREFETCH     ACCESS:          0 HIT:          0 MISS:          0
cpu0_ITLB WRITE        ACCESS:          0 HIT:          0 MISS:          0
cpu0_ITLB TRANSLATION  ACCESS:          0 HIT:          0 MISS:          0
cpu0_ITLB PREFETCH REQUESTED:          0 ISSUED:          0 USEFUL:          0 USELESS:          0
cpu0_ITLB AVERAGE MISS LATENCY: -nan cycles
cpu0_L1D TOTAL        ACCESS:   11269374 HIT:    5554858 MISS:    5714516
cpu0_L1D LOAD         ACCESS:    7094207 HIT:    4373159 MISS:    2721048
cpu0_L1D RFO          ACCESS:          0 HIT:          0 MISS:          0
cpu0_L1D PREFETCH     ACCESS:    2833998 HIT:    1138183 MISS:    1695815
cpu0_L1D WRITE        ACCESS:    1329057 HIT:      42474 MISS:    1286583
cpu0_L1D TRANSLATION  ACCESS:      12112 HIT:       1042 MISS:      11070
cpu0_L1D PREFETCH REQUESTED:    8128843 ISSUED:    2833992 USEFUL:     326315 USELESS:       6146
cpu0_L1D AVERAGE MISS LATENCY: 70.77 cycles
cpu0_L1I TOTAL        ACCESS:          0 HIT:          0 MISS:          0
cpu0_L1I LOAD         ACCESS:          0 HIT:          0 MISS:          0
cpu0_L1I RFO          ACCESS:          0 HIT:          0 MISS:          0
cpu0_L1I PREFETCH     ACCESS:          0 HIT:          0 MISS:          0
cpu0_L1I WRITE        ACCESS:          0 HIT:          0 MISS:          0
cpu0_L1I TRANSLATION  ACCESS:          0 HIT:          0 MISS:          0
cpu0_L1I PREFETCH REQUESTED:          0 ISSUED:          0 USEFUL:          0 USELESS:          0
cpu0_L1I AVERAGE MISS LATENCY: -nan cycles
cpu0_L2C TOTAL        ACCESS:     753351 HIT:     183447 MISS:     569904
cpu0_L2C LOAD         ACCESS:      51537 HIT:       4199 MISS:      47338
cpu0_L2C RFO          ACCESS:     167090 HIT:          0 MISS:     167090
cpu0_L2C PREFETCH     ACCESS:     355494 HIT:       2831 MISS:     352663
cpu0_L2C WRITE        ACCESS:     168160 HIT:     168153 MISS:          7
cpu0_L2C TRANSLATION  ACCESS:      11070 HIT:       8264 MISS:       2806
cpu0_L2C PREFETCH REQUESTED:      23034 ISSUED:      23034 USEFUL:       3691 USELESS:       4605
cpu0_L2C AVERAGE MISS LATENCY: 1309 cycles
cpu0_STLB TOTAL        ACCESS:      12085 HIT:          6 MISS:      12079
cpu0_STLB LOAD         ACCESS:      12085 HIT:          6 MISS:      12079
cpu0_STLB RFO          ACCESS:          0 HIT:          0 MISS:          0
cpu0_STLB PREFETCH     ACCESS:          0 HIT:          0 MISS:          0
cpu0_STLB WRITE        ACCESS:          0 HIT:          0 MISS:          0
cpu0_STLB TRANSLATION  ACCESS:          0 HIT:          0 MISS:          0
cpu0_STLB PREFETCH REQUESTED:          0 ISSUED:          0 USEFUL:          0 USELESS:          0
cpu0_STLB AVERAGE MISS LATENCY: 431.3 cycles

DRAM Statistics

Channel 0 RQ ROW_BUFFER_HIT:      88969
  ROW_BUFFER_MISS:     460199
 AVG DBUS CONGESTED CYCLE: 3.965
WQ ROW_BUFFER_HIT: Channel 0 
  ROW_BUFFER_MISS:       1697
  FULL:     162982
