WARNING: physical memory size is smaller than virtual memory size.

*** ChampSim Multicore Out-of-Order Simulator ***
Warmup Instructions: 25000000
Simulation Instructions: 25000000
Number of CPUs: 1
Page size: 4096

Off-chip DRAM Size: 4 GiB Channels: 1 Width: 64-bit Data Race: 800 MT/s
Heartbeat CPU 0 instructions: 10000003 cycles: 2500445 heartbeat IPC: 3.999 cumulative IPC: 3.999 (Simulation time: 00 hr 00 min 50 sec)
Heartbeat CPU 0 instructions: 20000003 cycles: 5001145 heartbeat IPC: 3.999 cumulative IPC: 3.999 (Simulation time: 00 hr 01 min 38 sec)
Warmup finished CPU 0 instructions: 25000003 cycles: 6251146 cumulative IPC: 3.999 (Simulation time: 00 hr 02 min 03 sec)
Warmup complete CPU 0 instructions: 25000003 cycles: 6251146 cumulative IPC: 3.999 (Simulation time: 00 hr 02 min 03 sec)
Heartbeat CPU 0 instructions: 30000002 cycles: 9191901 heartbeat IPC: 2.386 cumulative IPC: 1.7 (Simulation time: 00 hr 02 min 49 sec)
Heartbeat CPU 0 instructions: 40000002 cycles: 16261099 heartbeat IPC: 1.415 cumulative IPC: 1.499 (Simulation time: 00 hr 04 min 29 sec)
Heartbeat CPU 0 instructions: 50000002 cycles: 21434014 heartbeat IPC: 1.933 cumulative IPC: 1.647 (Simulation time: 00 hr 05 min 44 sec)
Simulation finished CPU 0 instructions: 25000003 cycles: 15182870 cumulative IPC: 1.647 (Simulation time: 00 hr 05 min 44 sec)
Simulation complete CPU 0 instructions: 25000003 cycles: 15182870 cumulative IPC: 1.647 (Simulation time: 00 hr 05 min 44 sec)

ChampSim completed all CPUs

=== Simulation ===
CPU 0 runs ./traces/654.roms_s-293B.champsimtrace.xz
Region of Interest Statistics

CPU 0 cumulative IPC: 1.647 instructions: 25000003 cycles: 15182870
CPU 0 Branch Prediction Accuracy: 99.8% MPKI: 0.02352 Average ROB Occupancy at Mispredict: 346.9
Branch type MPKI
BRANCH_DIRECT_JUMP: 0
BRANCH_INDIRECT: 0
BRANCH_CONDITIONAL: 0.0235
BRANCH_DIRECT_CALL: 0
BRANCH_INDIRECT_CALL: 0
BRANCH_RETURN: 0

LLC TOTAL        ACCESS:     394133 HIT:     267952 MISS:     126181
LLC LOAD         ACCESS:      28828 HIT:      19588 MISS:       9240
LLC RFO          ACCESS:     128295 HIT:      66239 MISS:      62056
LLC PREFETCH     ACCESS:     107836 HIT:      61537 MISS:      46299
LLC WRITE        ACCESS:     125687 HIT:     120417 MISS:       5270
LLC TRANSLATION  ACCESS:       3487 HIT:        171 MISS:       3316
LLC PREFETCH REQUESTED:          0 ISSUED:          0 USEFUL:          0 USELESS:          0
LLC AVERAGE MISS LATENCY: 792.8 cycles
cpu0_DTLB TOTAL        ACCESS:    5861354 HIT:    5838545 MISS:      22809
cpu0_DTLB LOAD         ACCESS:    5861354 HIT:    5838545 MISS:      22809
cpu0_DTLB RFO          ACCESS:          0 HIT:          0 MISS:          0
cpu0_DTLB PREFETCH     ACCESS:          0 HIT:          0 MISS:          0
cpu0_DTLB WRITE        ACCESS:          0 HIT:          0 MISS:          0
cpu0_DTLB TRANSLATION  ACCESS:          0 HIT:          0 MISS:          0
cpu0_DTLB PREFETCH REQUESTED:          0 ISSUED:          0 USEFUL:          0 USELESS:          0
cpu0_DTLB AVERAGE MISS LATENCY: 108.4 cycles
cpu0_ITLB TOTAL        ACCESS:        290 HIT:        290 MISS:          0
cpu0_ITLB LOAD         ACCESS:        290 HIT:        290 MISS:          0
cpu0_ITLB RFO          ACCESS:          0 HIT:          0 MISS:          0
cpu0_ITLB PREFETCH     ACCESS:          0 HIT:          0 MISS:          0
cpu0_ITLB WRITE        ACCESS:          0 HIT:          0 MISS:          0
cpu0_ITLB TRANSLATION  ACCESS:          0 HIT:          0 MISS:          0
cpu0_ITLB PREFETCH REQUESTED:          0 ISSUED:          0 USEFUL:          0 USELESS:          0
cpu0_ITLB AVERAGE MISS LATENCY: -nan cycles
cpu0_L1D TOTAL        ACCESS:    9652200 HIT:    8675105 MISS:     977095
cpu0_L1D LOAD         ACCESS:    4569595 HIT:    4324783 MISS:     244812
cpu0_L1D RFO          ACCESS:          0 HIT:          0 MISS:          0
cpu0_L1D PREFETCH     ACCESS:    2718379 HIT:    2490444 MISS:     227935
cpu0_L1D WRITE        ACCESS:    2360606 HIT:    1859852 MISS:     500754
cpu0_L1D TRANSLATION  ACCESS:       3620 HIT:         26 MISS:       3594
cpu0_L1D PREFETCH REQUESTED:    5011458 ISSUED:    2718380 USEFUL:      69889 USELESS:       2506
cpu0_L1D AVERAGE MISS LATENCY: 75.52 cycles
cpu0_L1I TOTAL        ACCESS:        392 HIT:        392 MISS:          0
cpu0_L1I LOAD         ACCESS:        392 HIT:        392 MISS:          0
cpu0_L1I RFO          ACCESS:          0 HIT:          0 MISS:          0
cpu0_L1I PREFETCH     ACCESS:          0 HIT:          0 MISS:          0
cpu0_L1I WRITE        ACCESS:          0 HIT:          0 MISS:          0
cpu0_L1I TRANSLATION  ACCESS:          0 HIT:          0 MISS:          0
cpu0_L1I PREFETCH REQUESTED:          0 ISSUED:          0 USEFUL:          0 USELESS:          0
cpu0_L1I AVERAGE MISS LATENCY: -nan cycles
cpu0_L2C TOTAL        ACCESS:     567457 HIT:     281009 MISS:     286448
cpu0_L2C LOAD         ACCESS:      92123 HIT:      58389 MISS:      33734
cpu0_L2C RFO          ACCESS:     128531 HIT:        235 MISS:     128296
cpu0_L2C PREFETCH     ACCESS:     214540 HIT:      93998 MISS:     120542
cpu0_L2C WRITE        ACCESS:     128691 HIT:     128302 MISS:        389
cpu0_L2C TRANSLATION  ACCESS:       3572 HIT:         85 MISS:       3487
cpu0_L2C PREFETCH REQUESTED:     142140 ISSUED:     142140 USEFUL:      44741 USELESS:       2524
cpu0_L2C AVERAGE MISS LATENCY: 364.4 cycles
cpu0_STLB TOTAL        ACCESS:       6298 HIT:       3926 MISS:       2372
cpu0_STLB LOAD         ACCESS:       6298 HIT:       3926 MISS:       2372
cpu0_STLB RFO          ACCESS:          0 HIT:          0 MISS:          0
cpu0_STLB PREFETCH     ACCESS:          0 HIT:          0 MISS:          0
cpu0_STLB WRITE        ACCESS:          0 HIT:          0 MISS:          0
cpu0_STLB TRANSLATION  ACCESS:          0 HIT:          0 MISS:          0
cpu0_STLB PREFETCH REQUESTED:          0 ISSUED:          0 USEFUL:          0 USELESS:          0
cpu0_STLB AVERAGE MISS LATENCY: 1471 cycles

DRAM Statistics

Channel 0 RQ ROW_BUFFER_HIT:      36767
  ROW_BUFFER_MISS:      83932
 AVG DBUS CONGESTED CYCLE: 3.941
WQ ROW_BUFFER_HIT: Channel 0 
  ROW_BUFFER_MISS:       1167
  FULL:      58939
