WARNING: physical memory size is smaller than virtual memory size.

*** ChampSim Multicore Out-of-Order Simulator ***
Warmup Instructions: 25000000
Simulation Instructions: 25000000
Number of CPUs: 1
Page size: 4096

Off-chip DRAM Size: 4 GiB Channels: 1 Width: 64-bit Data Race: 800 MT/s
Heartbeat CPU 0 instructions: 10000002 cycles: 2500927 heartbeat IPC: 3.999 cumulative IPC: 3.999 (Simulation time: 00 hr 00 min 39 sec)
Heartbeat CPU 0 instructions: 20000002 cycles: 5001741 heartbeat IPC: 3.999 cumulative IPC: 3.999 (Simulation time: 00 hr 01 min 18 sec)
Warmup finished CPU 0 instructions: 25000002 cycles: 6252149 cumulative IPC: 3.999 (Simulation time: 00 hr 01 min 38 sec)
Warmup complete CPU 0 instructions: 25000002 cycles: 6252149 cumulative IPC: 3.999 (Simulation time: 00 hr 01 min 38 sec)
Heartbeat CPU 0 instructions: 30000003 cycles: 10796767 heartbeat IPC: 1.726 cumulative IPC: 1.1 (Simulation time: 00 hr 02 min 32 sec)
Heartbeat CPU 0 instructions: 40000000 cycles: 20133001 heartbeat IPC: 1.071 cumulative IPC: 1.081 (Simulation time: 00 hr 04 min 18 sec)
Heartbeat CPU 0 instructions: 50000000 cycles: 29477726 heartbeat IPC: 1.07 cumulative IPC: 1.076 (Simulation time: 00 hr 05 min 46 sec)
Simulation finished CPU 0 instructions: 25000002 cycles: 23225579 cumulative IPC: 1.076 (Simulation time: 00 hr 05 min 46 sec)
Simulation complete CPU 0 instructions: 25000002 cycles: 23225579 cumulative IPC: 1.076 (Simulation time: 00 hr 05 min 46 sec)

ChampSim completed all CPUs

=== Simulation ===
CPU 0 runs ./traces/654.roms_s-294B.champsimtrace.xz
Region of Interest Statistics

CPU 0 cumulative IPC: 1.076 instructions: 25000002 cycles: 23225579
CPU 0 Branch Prediction Accuracy: 99.93% MPKI: 0.03748 Average ROB Occupancy at Mispredict: 324.2
Branch type MPKI
BRANCH_DIRECT_JUMP: 0
BRANCH_INDIRECT: 0
BRANCH_CONDITIONAL: 0.0375
BRANCH_DIRECT_CALL: 0
BRANCH_INDIRECT_CALL: 0
BRANCH_RETURN: 0

LLC TOTAL        ACCESS:     343838 HIT:      35721 MISS:     308117
LLC LOAD         ACCESS:      24343 HIT:       2416 MISS:      21927
LLC RFO          ACCESS:       2561 HIT:         34 MISS:       2527
LLC PREFETCH     ACCESS:     302102 HIT:      28035 MISS:     274067
LLC WRITE        ACCESS:       2652 HIT:       1357 MISS:       1295
LLC TRANSLATION  ACCESS:      12180 HIT:       3879 MISS:       8301
LLC PREFETCH REQUESTED:          0 ISSUED:          0 USEFUL:          0 USELESS:          0
LLC AVERAGE MISS LATENCY: 451.1 cycles
cpu0_DTLB TOTAL        ACCESS:    6755242 HIT:    6714747 MISS:      40495
cpu0_DTLB LOAD         ACCESS:    6755242 HIT:    6714747 MISS:      40495
cpu0_DTLB RFO          ACCESS:          0 HIT:          0 MISS:          0
cpu0_DTLB PREFETCH     ACCESS:          0 HIT:          0 MISS:          0
cpu0_DTLB WRITE        ACCESS:          0 HIT:          0 MISS:          0
cpu0_DTLB TRANSLATION  ACCESS:          0 HIT:          0 MISS:          0
cpu0_DTLB PREFETCH REQUESTED:          0 ISSUED:          0 USEFUL:          0 USELESS:          0
cpu0_DTLB AVERAGE MISS LATENCY: 96.65 cycles
cpu0_ITLB TOTAL        ACCESS:          0 HIT:          0 MISS:          0
cpu0_ITLB LOAD         ACCESS:          0 HIT:          0 MISS:          0
cpu0_ITLB RFO          ACCESS:          0 HIT:          0 MISS:          0
cpu0_ITLB PREFETCH     ACCESS:          0 HIT:          0 MISS:          0
cpu0_ITLB WRITE        ACCESS:          0 HIT:          0 MISS:          0
cpu0_ITLB TRANSLATION  ACCESS:          0 HIT:          0 MISS:          0
cpu0_ITLB PREFETCH REQUESTED:          0 ISSUED:          0 USEFUL:          0 USELESS:          0
cpu0_ITLB AVERAGE MISS LATENCY: -nan cycles
cpu0_L1D TOTAL        ACCESS:   10372497 HIT:    7930895 MISS:    2441602
cpu0_L1D LOAD         ACCESS:    7279961 HIT:    5813805 MISS:    1466156
cpu0_L1D RFO          ACCESS:          0 HIT:          0 MISS:          0
cpu0_L1D PREFETCH     ACCESS:    2230206 HIT:    1282232 MISS:     947974
cpu0_L1D WRITE        ACCESS:     849933 HIT:     834773 MISS:      15160
cpu0_L1D TRANSLATION  ACCESS:      12397 HIT:         85 MISS:      12312
cpu0_L1D PREFETCH REQUESTED:    7280208 ISSUED:    2230206 USEFUL:     419510 USELESS:      11754
cpu0_L1D AVERAGE MISS LATENCY: 21.27 cycles
cpu0_L1I TOTAL        ACCESS:          0 HIT:          0 MISS:          0
cpu0_L1I LOAD         ACCESS:          0 HIT:          0 MISS:          0
cpu0_L1I RFO          ACCESS:          0 HIT:          0 MISS:          0
cpu0_L1I PREFETCH     ACCESS:          0 HIT:          0 MISS:          0
cpu0_L1I WRITE        ACCESS:          0 HIT:          0 MISS:          0
cpu0_L1I TRANSLATION  ACCESS:          0 HIT:          0 MISS:          0
cpu0_L1I PREFETCH REQUESTED:          0 ISSUED:          0 USEFUL:          0 USELESS:          0
cpu0_L1I AVERAGE MISS LATENCY: -nan cycles
cpu0_L2C TOTAL        ACCESS:     589610 HIT:     246127 MISS:     343483
cpu0_L2C LOAD         ACCESS:      41277 HIT:      16930 MISS:      24347
cpu0_L2C RFO          ACCESS:       2606 HIT:         45 MISS:       2561
cpu0_L2C PREFETCH     ACCESS:     438028 HIT:     133633 MISS:     304395
cpu0_L2C WRITE        ACCESS:      95412 HIT:      95412 MISS:          0
cpu0_L2C TRANSLATION  ACCESS:      12287 HIT:        107 MISS:      12180
cpu0_L2C PREFETCH REQUESTED:       6763 ISSUED:       6763 USEFUL:        752 USELESS:       1211
cpu0_L2C AVERAGE MISS LATENCY: 425.1 cycles
cpu0_STLB TOTAL        ACCESS:       9850 HIT:       1635 MISS:       8215
cpu0_STLB LOAD         ACCESS:       9850 HIT:       1635 MISS:       8215
cpu0_STLB RFO          ACCESS:          0 HIT:          0 MISS:          0
cpu0_STLB PREFETCH     ACCESS:          0 HIT:          0 MISS:          0
cpu0_STLB WRITE        ACCESS:          0 HIT:          0 MISS:          0
cpu0_STLB TRANSLATION  ACCESS:          0 HIT:          0 MISS:          0
cpu0_STLB PREFETCH REQUESTED:          0 ISSUED:          0 USEFUL:          0 USELESS:          0
cpu0_STLB AVERAGE MISS LATENCY: 799.2 cycles

DRAM Statistics

Channel 0 RQ ROW_BUFFER_HIT:     209292
  ROW_BUFFER_MISS:      96831
 AVG DBUS CONGESTED CYCLE: 3.814
WQ ROW_BUFFER_HIT: Channel 0 
  ROW_BUFFER_MISS:        190
  FULL:       2270
