WARNING: physical memory size is smaller than virtual memory size.

*** ChampSim Multicore Out-of-Order Simulator ***
Warmup Instructions: 25000000
Simulation Instructions: 25000000
Number of CPUs: 1
Page size: 4096

Off-chip DRAM Size: 4 GiB Channels: 1 Width: 64-bit Data Race: 800 MT/s
Heartbeat CPU 0 instructions: 10000002 cycles: 2500068 heartbeat IPC: 4 cumulative IPC: 4 (Simulation time: 00 hr 00 min 28 sec)
Heartbeat CPU 0 instructions: 20000002 cycles: 5000068 heartbeat IPC: 4 cumulative IPC: 4 (Simulation time: 00 hr 00 min 59 sec)
Warmup finished CPU 0 instructions: 25000002 cycles: 6250069 cumulative IPC: 4 (Simulation time: 00 hr 01 min 14 sec)
Warmup complete CPU 0 instructions: 25000002 cycles: 6250069 cumulative IPC: 4 (Simulation time: 00 hr 01 min 14 sec)
Heartbeat CPU 0 instructions: 30000000 cycles: 21896003 heartbeat IPC: 0.5919 cumulative IPC: 0.3196 (Simulation time: 00 hr 02 min 57 sec)
Heartbeat CPU 0 instructions: 40000001 cycles: 52368244 heartbeat IPC: 0.3282 cumulative IPC: 0.3253 (Simulation time: 00 hr 06 min 28 sec)
Heartbeat CPU 0 instructions: 50000000 cycles: 83650397 heartbeat IPC: 0.3197 cumulative IPC: 0.323 (Simulation time: 00 hr 09 min 18 sec)
Simulation finished CPU 0 instructions: 25000000 cycles: 77400334 cumulative IPC: 0.323 (Simulation time: 00 hr 09 min 18 sec)
Simulation complete CPU 0 instructions: 25000000 cycles: 77400334 cumulative IPC: 0.323 (Simulation time: 00 hr 09 min 18 sec)

ChampSim completed all CPUs

=== Simulation ===
CPU 0 runs ./traces/602.gcc_s-2226B.champsimtrace.xz
Region of Interest Statistics

CPU 0 cumulative IPC: 0.323 instructions: 25000000 cycles: 77400334
CPU 0 Branch Prediction Accuracy: 98.44% MPKI: 5.548 Average ROB Occupancy at Mispredict: 65.81
Branch type MPKI
BRANCH_DIRECT_JUMP: 0.073
BRANCH_INDIRECT: 0
BRANCH_CONDITIONAL: 5.47
BRANCH_DIRECT_CALL: 8e-05
BRANCH_INDIRECT_CALL: 0
BRANCH_RETURN: 0

LLC TOTAL        ACCESS:    4850326 HIT:      59545 MISS:    4790781
LLC LOAD         ACCESS:    1614050 HIT:      38827 MISS:    1575223
LLC RFO          ACCESS:         10 HIT:          0 MISS:         10
LLC PREFETCH     ACCESS:    3226777 HIT:      20607 MISS:    3206170
LLC WRITE        ACCESS:       2762 HIT:         79 MISS:       2683
LLC TRANSLATION  ACCESS:       6727 HIT:         32 MISS:       6695
LLC PREFETCH REQUESTED:          0 ISSUED:          0 USEFUL:          0 USELESS:          0
LLC AVERAGE MISS LATENCY: 206.2 cycles
cpu0_DTLB TOTAL        ACCESS:    3529275 HIT:    3184852 MISS:     344423
cpu0_DTLB LOAD         ACCESS:    3529275 HIT:    3184852 MISS:     344423
cpu0_DTLB RFO          ACCESS:          0 HIT:          0 MISS:          0
cpu0_DTLB PREFETCH     ACCESS:          0 HIT:          0 MISS:          0
cpu0_DTLB WRITE        ACCESS:          0 HIT:          0 MISS:          0
cpu0_DTLB TRANSLATION  ACCESS:          0 HIT:          0 MISS:          0
cpu0_DTLB PREFETCH REQUESTED:          0 ISSUED:          0 USEFUL:          0 USELESS:          0
cpu0_DTLB AVERAGE MISS LATENCY: 20.64 cycles
cpu0_ITLB TOTAL        ACCESS:          0 HIT:          0 MISS:          0
cpu0_ITLB LOAD         ACCESS:          0 HIT:          0 MISS:          0
cpu0_ITLB RFO          ACCESS:          0 HIT:          0 MISS:          0
cpu0_ITLB PREFETCH     ACCESS:          0 HIT:          0 MISS:          0
cpu0_ITLB WRITE        ACCESS:          0 HIT:          0 MISS:          0
cpu0_ITLB TRANSLATION  ACCESS:          0 HIT:          0 MISS:          0
cpu0_ITLB PREFETCH REQUESTED:          0 ISSUED:          0 USEFUL:          0 USELESS:          0
cpu0_ITLB AVERAGE MISS LATENCY: -nan cycles
cpu0_L1D TOTAL        ACCESS:    6435645 HIT:    2043060 MISS:    4392585
cpu0_L1D LOAD         ACCESS:    4289777 HIT:     820578 MISS:    3469199
cpu0_L1D RFO          ACCESS:          0 HIT:          0 MISS:          0
cpu0_L1D PREFETCH     ACCESS:    1770821 HIT:     855295 MISS:     915526
cpu0_L1D WRITE        ACCESS:     341664 HIT:     341645 MISS:         19
cpu0_L1D TRANSLATION  ACCESS:      33383 HIT:      25542 MISS:       7841
cpu0_L1D PREFETCH REQUESTED:   52860611 ISSUED:    1770814 USEFUL:      84114 USELESS:      59515
cpu0_L1D AVERAGE MISS LATENCY: 224.8 cycles
cpu0_L1I TOTAL        ACCESS:          0 HIT:          0 MISS:          0
cpu0_L1I LOAD         ACCESS:          0 HIT:          0 MISS:          0
cpu0_L1I RFO          ACCESS:          0 HIT:          0 MISS:          0
cpu0_L1I PREFETCH     ACCESS:          0 HIT:          0 MISS:          0
cpu0_L1I WRITE        ACCESS:          0 HIT:          0 MISS:          0
cpu0_L1I TRANSLATION  ACCESS:          0 HIT:          0 MISS:          0
cpu0_L1I PREFETCH REQUESTED:          0 ISSUED:          0 USEFUL:          0 USELESS:          0
cpu0_L1I AVERAGE MISS LATENCY: -nan cycles
cpu0_L2C TOTAL        ACCESS:    5836532 HIT:     131786 MISS:    5704746
cpu0_L2C LOAD         ACCESS:    1724047 HIT:      60232 MISS:    1663815
cpu0_L2C RFO          ACCESS:         10 HIT:          0 MISS:         10
cpu0_L2C PREFETCH     ACCESS:    4101456 HIT:      67262 MISS:    4034194
cpu0_L2C WRITE        ACCESS:       3200 HIT:       3200 MISS:          0
cpu0_L2C TRANSLATION  ACCESS:       7819 HIT:       1092 MISS:       6727
cpu0_L2C PREFETCH REQUESTED:    3960615 ISSUED:    3957826 USEFUL:      55764 USELESS:       7090
cpu0_L2C AVERAGE MISS LATENCY: 173.9 cycles
cpu0_STLB TOTAL        ACCESS:      33963 HIT:       1260 MISS:      32703
cpu0_STLB LOAD         ACCESS:      33963 HIT:       1260 MISS:      32703
cpu0_STLB RFO          ACCESS:          0 HIT:          0 MISS:          0
cpu0_STLB PREFETCH     ACCESS:          0 HIT:          0 MISS:          0
cpu0_STLB WRITE        ACCESS:          0 HIT:          0 MISS:          0
cpu0_STLB TRANSLATION  ACCESS:          0 HIT:          0 MISS:          0
cpu0_STLB PREFETCH REQUESTED:          0 ISSUED:          0 USEFUL:          0 USELESS:          0
cpu0_STLB AVERAGE MISS LATENCY: 342.5 cycles

DRAM Statistics

Channel 0 RQ ROW_BUFFER_HIT:    1606943
  ROW_BUFFER_MISS:     137682
 AVG DBUS CONGESTED CYCLE: 3.986
WQ ROW_BUFFER_HIT: Channel 0 
  ROW_BUFFER_MISS:        676
  FULL:       1990
