WARNING: physical memory size is smaller than virtual memory size.

*** ChampSim Multicore Out-of-Order Simulator ***
Warmup Instructions: 25000000
Simulation Instructions: 25000000
Number of CPUs: 1
Page size: 4096

Off-chip DRAM Size: 4 GiB Channels: 1 Width: 64-bit Data Race: 800 MT/s
Heartbeat CPU 0 instructions: 10000001 cycles: 2500087 heartbeat IPC: 4 cumulative IPC: 4 (Simulation time: 00 hr 00 min 28 sec)
Heartbeat CPU 0 instructions: 20000003 cycles: 5000100 heartbeat IPC: 4 cumulative IPC: 4 (Simulation time: 00 hr 00 min 56 sec)
Warmup finished CPU 0 instructions: 25000003 cycles: 6250101 cumulative IPC: 4 (Simulation time: 00 hr 01 min 10 sec)
Warmup complete CPU 0 instructions: 25000003 cycles: 6250101 cumulative IPC: 4 (Simulation time: 00 hr 01 min 10 sec)
Heartbeat CPU 0 instructions: 30000000 cycles: 10939429 heartbeat IPC: 1.684 cumulative IPC: 1.066 (Simulation time: 00 hr 01 min 39 sec)
Heartbeat CPU 0 instructions: 40000001 cycles: 20603093 heartbeat IPC: 1.035 cumulative IPC: 1.045 (Simulation time: 00 hr 02 min 38 sec)
Heartbeat CPU 0 instructions: 50000002 cycles: 33106622 heartbeat IPC: 0.7998 cumulative IPC: 0.9309 (Simulation time: 00 hr 03 min 48 sec)
Simulation finished CPU 0 instructions: 25000003 cycles: 26856523 cumulative IPC: 0.9309 (Simulation time: 00 hr 03 min 48 sec)
Simulation complete CPU 0 instructions: 25000003 cycles: 26856523 cumulative IPC: 0.9309 (Simulation time: 00 hr 03 min 48 sec)

ChampSim completed all CPUs

=== Simulation ===
CPU 0 runs ./traces/602.gcc_s-734B.champsimtrace.xz
Region of Interest Statistics

CPU 0 cumulative IPC: 0.9309 instructions: 25000003 cycles: 26856523
CPU 0 Branch Prediction Accuracy: 89.42% MPKI: 25.09 Average ROB Occupancy at Mispredict: 17.49
Branch type MPKI
BRANCH_DIRECT_JUMP: 0.0794
BRANCH_INDIRECT: 0
BRANCH_CONDITIONAL: 25
BRANCH_DIRECT_CALL: 0.0548
BRANCH_INDIRECT_CALL: 0
BRANCH_RETURN: 0

LLC TOTAL        ACCESS:     211567 HIT:      30927 MISS:     180640
LLC LOAD         ACCESS:       6025 HIT:        720 MISS:       5305
LLC RFO          ACCESS:          1 HIT:          0 MISS:          1
LLC PREFETCH     ACCESS:     201665 HIT:      29665 MISS:     172000
LLC WRITE        ACCESS:       1295 HIT:        202 MISS:       1093
LLC TRANSLATION  ACCESS:       2581 HIT:        340 MISS:       2241
LLC PREFETCH REQUESTED:          0 ISSUED:          0 USEFUL:          0 USELESS:          0
LLC AVERAGE MISS LATENCY: 159.7 cycles
cpu0_DTLB TOTAL        ACCESS:    6245173 HIT:    6232593 MISS:      12580
cpu0_DTLB LOAD         ACCESS:    6245173 HIT:    6232593 MISS:      12580
cpu0_DTLB RFO          ACCESS:          0 HIT:          0 MISS:          0
cpu0_DTLB PREFETCH     ACCESS:          0 HIT:          0 MISS:          0
cpu0_DTLB WRITE        ACCESS:          0 HIT:          0 MISS:          0
cpu0_DTLB TRANSLATION  ACCESS:          0 HIT:          0 MISS:          0
cpu0_DTLB PREFETCH REQUESTED:          0 ISSUED:          0 USEFUL:          0 USELESS:          0
cpu0_DTLB AVERAGE MISS LATENCY: 74.09 cycles
cpu0_ITLB TOTAL        ACCESS:          4 HIT:          4 MISS:          0
cpu0_ITLB LOAD         ACCESS:          4 HIT:          4 MISS:          0
cpu0_ITLB RFO          ACCESS:          0 HIT:          0 MISS:          0
cpu0_ITLB PREFETCH     ACCESS:          0 HIT:          0 MISS:          0
cpu0_ITLB WRITE        ACCESS:          0 HIT:          0 MISS:          0
cpu0_ITLB TRANSLATION  ACCESS:          0 HIT:          0 MISS:          0
cpu0_ITLB PREFETCH REQUESTED:          0 ISSUED:          0 USEFUL:          0 USELESS:          0
cpu0_ITLB AVERAGE MISS LATENCY: -nan cycles
cpu0_L1D TOTAL        ACCESS:   13784808 HIT:   11809542 MISS:    1975266
cpu0_L1D LOAD         ACCESS:    5606018 HIT:    5363903 MISS:     242115
cpu0_L1D RFO          ACCESS:          0 HIT:          0 MISS:          0
cpu0_L1D PREFETCH     ACCESS:    5600436 HIT:    3870115 MISS:    1730321
cpu0_L1D WRITE        ACCESS:    2572748 HIT:    2572713 MISS:         35
cpu0_L1D TRANSLATION  ACCESS:       5606 HIT:       2811 MISS:       2795
cpu0_L1D PREFETCH REQUESTED:    5608973 ISSUED:    5600437 USEFUL:     388248 USELESS:      12560
cpu0_L1D AVERAGE MISS LATENCY: 11.4 cycles
cpu0_L1I TOTAL        ACCESS:          4 HIT:          4 MISS:          0
cpu0_L1I LOAD         ACCESS:          4 HIT:          4 MISS:          0
cpu0_L1I RFO          ACCESS:          0 HIT:          0 MISS:          0
cpu0_L1I PREFETCH     ACCESS:          0 HIT:          0 MISS:          0
cpu0_L1I WRITE        ACCESS:          0 HIT:          0 MISS:          0
cpu0_L1I TRANSLATION  ACCESS:          0 HIT:          0 MISS:          0
cpu0_L1I PREFETCH REQUESTED:          0 ISSUED:          0 USEFUL:          0 USELESS:          0
cpu0_L1I AVERAGE MISS LATENCY: -nan cycles
cpu0_L2C TOTAL        ACCESS:     423358 HIT:     212756 MISS:     210602
cpu0_L2C LOAD         ACCESS:      15620 HIT:       9566 MISS:       6054
cpu0_L2C RFO          ACCESS:         10 HIT:          9 MISS:          1
cpu0_L2C PREFETCH     ACCESS:     402051 HIT:     200089 MISS:     201962
cpu0_L2C WRITE        ACCESS:       2883 HIT:       2879 MISS:          4
cpu0_L2C TRANSLATION  ACCESS:       2794 HIT:        213 MISS:       2581
cpu0_L2C PREFETCH REQUESTED:       1235 ISSUED:       1235 USEFUL:        342 USELESS:        408
cpu0_L2C AVERAGE MISS LATENCY: 157.6 cycles
cpu0_STLB TOTAL        ACCESS:       7140 HIT:       1950 MISS:       5190
cpu0_STLB LOAD         ACCESS:       7140 HIT:       1950 MISS:       5190
cpu0_STLB RFO          ACCESS:          0 HIT:          0 MISS:          0
cpu0_STLB PREFETCH     ACCESS:          0 HIT:          0 MISS:          0
cpu0_STLB WRITE        ACCESS:          0 HIT:          0 MISS:          0
cpu0_STLB TRANSLATION  ACCESS:          0 HIT:          0 MISS:          0
cpu0_STLB PREFETCH REQUESTED:          0 ISSUED:          0 USEFUL:          0 USELESS:          0
cpu0_STLB AVERAGE MISS LATENCY: 173.2 cycles

DRAM Statistics

Channel 0 RQ ROW_BUFFER_HIT:      94106
  ROW_BUFFER_MISS:      85387
 AVG DBUS CONGESTED CYCLE: 3.585
WQ ROW_BUFFER_HIT: Channel 0 
  ROW_BUFFER_MISS:        528
  FULL:        635
