WARNING: physical memory size is smaller than virtual memory size.

*** ChampSim Multicore Out-of-Order Simulator ***
Warmup Instructions: 25000000
Simulation Instructions: 25000000
Number of CPUs: 1
Page size: 4096

Off-chip DRAM Size: 4 GiB Channels: 1 Width: 64-bit Data Race: 800 MT/s
Heartbeat CPU 0 instructions: 10000001 cycles: 2500075 heartbeat IPC: 4 cumulative IPC: 4 (Simulation time: 00 hr 00 min 27 sec)
Heartbeat CPU 0 instructions: 20000001 cycles: 5000075 heartbeat IPC: 4 cumulative IPC: 4 (Simulation time: 00 hr 00 min 55 sec)
Warmup finished CPU 0 instructions: 25000001 cycles: 6250076 cumulative IPC: 4 (Simulation time: 00 hr 01 min 08 sec)
Warmup complete CPU 0 instructions: 25000001 cycles: 6250076 cumulative IPC: 4 (Simulation time: 00 hr 01 min 08 sec)
Heartbeat CPU 0 instructions: 30000001 cycles: 12933020 heartbeat IPC: 1.261 cumulative IPC: 0.7482 (Simulation time: 00 hr 01 min 46 sec)
Heartbeat CPU 0 instructions: 40000000 cycles: 26243176 heartbeat IPC: 0.7513 cumulative IPC: 0.7503 (Simulation time: 00 hr 03 min 00 sec)
Heartbeat CPU 0 instructions: 50000000 cycles: 39479169 heartbeat IPC: 0.7555 cumulative IPC: 0.7524 (Simulation time: 00 hr 04 min 14 sec)
Simulation finished CPU 0 instructions: 25000000 cycles: 33229095 cumulative IPC: 0.7524 (Simulation time: 00 hr 04 min 14 sec)
Simulation complete CPU 0 instructions: 25000000 cycles: 33229095 cumulative IPC: 0.7524 (Simulation time: 00 hr 04 min 14 sec)

ChampSim completed all CPUs

=== Simulation ===
CPU 0 runs ./traces/602.gcc_s-1850B.champsimtrace.xz
Region of Interest Statistics

CPU 0 cumulative IPC: 0.7524 instructions: 25000000 cycles: 33229095
CPU 0 Branch Prediction Accuracy: 87.84% MPKI: 31.17 Average ROB Occupancy at Mispredict: 12.83
Branch type MPKI
BRANCH_DIRECT_JUMP: 0.0119
BRANCH_INDIRECT: 0
BRANCH_CONDITIONAL: 31.2
BRANCH_DIRECT_CALL: 0
BRANCH_INDIRECT_CALL: 0
BRANCH_RETURN: 0

LLC TOTAL        ACCESS:     479373 HIT:       2076 MISS:     477297
LLC LOAD         ACCESS:     100387 HIT:         93 MISS:     100294
LLC RFO          ACCESS:          1 HIT:          0 MISS:          1
LLC PREFETCH     ACCESS:     377199 HIT:       1973 MISS:     375226
LLC WRITE        ACCESS:        623 HIT:          1 MISS:        622
LLC TRANSLATION  ACCESS:       1163 HIT:          9 MISS:       1154
LLC PREFETCH REQUESTED:          0 ISSUED:          0 USEFUL:          0 USELESS:          0
LLC AVERAGE MISS LATENCY: 178.5 cycles
cpu0_DTLB TOTAL        ACCESS:    6070726 HIT:    6038836 MISS:      31890
cpu0_DTLB LOAD         ACCESS:    6070726 HIT:    6038836 MISS:      31890
cpu0_DTLB RFO          ACCESS:          0 HIT:          0 MISS:          0
cpu0_DTLB PREFETCH     ACCESS:          0 HIT:          0 MISS:          0
cpu0_DTLB WRITE        ACCESS:          0 HIT:          0 MISS:          0
cpu0_DTLB TRANSLATION  ACCESS:          0 HIT:          0 MISS:          0
cpu0_DTLB PREFETCH REQUESTED:          0 ISSUED:          0 USEFUL:          0 USELESS:          0
cpu0_DTLB AVERAGE MISS LATENCY: 63.42 cycles
cpu0_ITLB TOTAL        ACCESS:          0 HIT:          0 MISS:          0
cpu0_ITLB LOAD         ACCESS:          0 HIT:          0 MISS:          0
cpu0_ITLB RFO          ACCESS:          0 HIT:          0 MISS:          0
cpu0_ITLB PREFETCH     ACCESS:          0 HIT:          0 MISS:          0
cpu0_ITLB WRITE        ACCESS:          0 HIT:          0 MISS:          0
cpu0_ITLB TRANSLATION  ACCESS:          0 HIT:          0 MISS:          0
cpu0_ITLB PREFETCH REQUESTED:          0 ISSUED:          0 USEFUL:          0 USELESS:          0
cpu0_ITLB AVERAGE MISS LATENCY: -nan cycles
cpu0_L1D TOTAL        ACCESS:   13458358 HIT:   10785111 MISS:    2673247
cpu0_L1D LOAD         ACCESS:    5715832 HIT:    4754718 MISS:     961114
cpu0_L1D RFO          ACCESS:          0 HIT:          0 MISS:          0
cpu0_L1D PREFETCH     ACCESS:    5468217 HIT:    3757519 MISS:    1710698
cpu0_L1D WRITE        ACCESS:    2266487 HIT:    2266484 MISS:          3
cpu0_L1D TRANSLATION  ACCESS:       7822 HIT:       6390 MISS:       1432
cpu0_L1D PREFETCH REQUESTED:    6135254 ISSUED:    5468221 USEFUL:     354196 USELESS:      44871
cpu0_L1D AVERAGE MISS LATENCY: 21.69 cycles
cpu0_L1I TOTAL        ACCESS:          0 HIT:          0 MISS:          0
cpu0_L1I LOAD         ACCESS:          0 HIT:          0 MISS:          0
cpu0_L1I RFO          ACCESS:          0 HIT:          0 MISS:          0
cpu0_L1I PREFETCH     ACCESS:          0 HIT:          0 MISS:          0
cpu0_L1I WRITE        ACCESS:          0 HIT:          0 MISS:          0
cpu0_L1I TRANSLATION  ACCESS:          0 HIT:          0 MISS:          0
cpu0_L1I PREFETCH REQUESTED:          0 ISSUED:          0 USEFUL:          0 USELESS:          0
cpu0_L1I AVERAGE MISS LATENCY: -nan cycles
cpu0_L2C TOTAL        ACCESS:    1287701 HIT:     445984 MISS:     841717
cpu0_L2C LOAD         ACCESS:     324214 HIT:     190889 MISS:     133325
cpu0_L2C RFO          ACCESS:          1 HIT:          0 MISS:          1
cpu0_L2C PREFETCH     ACCESS:     961248 HIT:     254020 MISS:     707228
cpu0_L2C WRITE        ACCESS:        806 HIT:        806 MISS:          0
cpu0_L2C TRANSLATION  ACCESS:       1432 HIT:        269 MISS:       1163
cpu0_L2C PREFETCH REQUESTED:     562180 ISSUED:     562180 USEFUL:     144662 USELESS:      67480
cpu0_L2C AVERAGE MISS LATENCY: 106.5 cycles
cpu0_STLB TOTAL        ACCESS:       8099 HIT:        366 MISS:       7733
cpu0_STLB LOAD         ACCESS:       8099 HIT:        366 MISS:       7733
cpu0_STLB RFO          ACCESS:          0 HIT:          0 MISS:          0
cpu0_STLB PREFETCH     ACCESS:          0 HIT:          0 MISS:          0
cpu0_STLB WRITE        ACCESS:          0 HIT:          0 MISS:          0
cpu0_STLB TRANSLATION  ACCESS:          0 HIT:          0 MISS:          0
cpu0_STLB PREFETCH REQUESTED:          0 ISSUED:          0 USEFUL:          0 USELESS:          0
cpu0_STLB AVERAGE MISS LATENCY: 259.1 cycles

DRAM Statistics

Channel 0 RQ ROW_BUFFER_HIT:     419788
  ROW_BUFFER_MISS:      28775
 AVG DBUS CONGESTED CYCLE: 3.89
WQ ROW_BUFFER_HIT: Channel 0 
  ROW_BUFFER_MISS:        366
  FULL:        238
