WARNING: physical memory size is smaller than virtual memory size.

*** ChampSim Multicore Out-of-Order Simulator ***
Warmup Instructions: 25000000
Simulation Instructions: 25000000
Number of CPUs: 1
Page size: 4096

Off-chip DRAM Size: 4 GiB Channels: 1 Width: 64-bit Data Race: 800 MT/s
Heartbeat CPU 0 instructions: 10000002 cycles: 2500136 heartbeat IPC: 4 cumulative IPC: 4 (Simulation time: 00 hr 00 min 32 sec)
Heartbeat CPU 0 instructions: 20000003 cycles: 5000154 heartbeat IPC: 4 cumulative IPC: 4 (Simulation time: 00 hr 01 min 05 sec)
Warmup finished CPU 0 instructions: 25000003 cycles: 6250155 cumulative IPC: 4 (Simulation time: 00 hr 01 min 22 sec)
Warmup complete CPU 0 instructions: 25000003 cycles: 6250155 cumulative IPC: 4 (Simulation time: 00 hr 01 min 22 sec)
Heartbeat CPU 0 instructions: 30000000 cycles: 14067622 heartbeat IPC: 1.103 cumulative IPC: 0.6396 (Simulation time: 00 hr 02 min 26 sec)
Heartbeat CPU 0 instructions: 40000001 cycles: 29615277 heartbeat IPC: 0.6432 cumulative IPC: 0.642 (Simulation time: 00 hr 04 min 40 sec)
Heartbeat CPU 0 instructions: 50000003 cycles: 45175710 heartbeat IPC: 0.6427 cumulative IPC: 0.6423 (Simulation time: 00 hr 06 min 53 sec)
Simulation finished CPU 0 instructions: 25000000 cycles: 38925556 cumulative IPC: 0.6423 (Simulation time: 00 hr 06 min 53 sec)
Simulation complete CPU 0 instructions: 25000000 cycles: 38925556 cumulative IPC: 0.6423 (Simulation time: 00 hr 06 min 53 sec)

ChampSim completed all CPUs

=== Simulation ===
CPU 0 runs ./traces/603.bwaves_s-2609B.champsimtrace.xz
Region of Interest Statistics

CPU 0 cumulative IPC: 0.6423 instructions: 25000000 cycles: 38925556
CPU 0 Branch Prediction Accuracy: 81.23% MPKI: 4.685 Average ROB Occupancy at Mispredict: 300.6
Branch type MPKI
BRANCH_DIRECT_JUMP: 0
BRANCH_INDIRECT: 0
BRANCH_CONDITIONAL: 4.68
BRANCH_DIRECT_CALL: 0
BRANCH_INDIRECT_CALL: 0
BRANCH_RETURN: 0

LLC TOTAL        ACCESS:     503307 HIT:      12527 MISS:     490780
LLC LOAD         ACCESS:     236275 HIT:      10461 MISS:     225814
LLC RFO          ACCESS:      12181 HIT:          0 MISS:      12181
LLC PREFETCH     ACCESS:     242497 HIT:       1962 MISS:     240535
LLC WRITE        ACCESS:      12252 HIT:         98 MISS:      12154
LLC TRANSLATION  ACCESS:        102 HIT:          6 MISS:         96
LLC PREFETCH REQUESTED:          0 ISSUED:          0 USEFUL:          0 USELESS:          0
LLC AVERAGE MISS LATENCY: 997.2 cycles
cpu0_DTLB TOTAL        ACCESS:    6673171 HIT:    6649362 MISS:      23809
cpu0_DTLB LOAD         ACCESS:    6673171 HIT:    6649362 MISS:      23809
cpu0_DTLB RFO          ACCESS:          0 HIT:          0 MISS:          0
cpu0_DTLB PREFETCH     ACCESS:          0 HIT:          0 MISS:          0
cpu0_DTLB WRITE        ACCESS:          0 HIT:          0 MISS:          0
cpu0_DTLB TRANSLATION  ACCESS:          0 HIT:          0 MISS:          0
cpu0_DTLB PREFETCH REQUESTED:          0 ISSUED:          0 USEFUL:          0 USELESS:          0
cpu0_DTLB AVERAGE MISS LATENCY: 57.91 cycles
cpu0_ITLB TOTAL        ACCESS:          0 HIT:          0 MISS:          0
cpu0_ITLB LOAD         ACCESS:          0 HIT:          0 MISS:          0
cpu0_ITLB RFO          ACCESS:          0 HIT:          0 MISS:          0
cpu0_ITLB PREFETCH     ACCESS:          0 HIT:          0 MISS:          0
cpu0_ITLB WRITE        ACCESS:          0 HIT:          0 MISS:          0
cpu0_ITLB TRANSLATION  ACCESS:          0 HIT:          0 MISS:          0
cpu0_ITLB PREFETCH REQUESTED:          0 ISSUED:          0 USEFUL:          0 USELESS:          0
cpu0_ITLB AVERAGE MISS LATENCY: -nan cycles
cpu0_L1D TOTAL        ACCESS:    9597621 HIT:    8370084 MISS:    1227537
cpu0_L1D LOAD         ACCESS:    6390376 HIT:    5634305 MISS:     756071
cpu0_L1D RFO          ACCESS:          0 HIT:          0 MISS:          0
cpu0_L1D PREFETCH     ACCESS:    1791450 HIT:    1390541 MISS:     400909
cpu0_L1D WRITE        ACCESS:    1408364 HIT:    1344979 MISS:      63385
cpu0_L1D TRANSLATION  ACCESS:       7431 HIT:        259 MISS:       7172
cpu0_L1D PREFETCH REQUESTED:    9397660 ISSUED:    1791457 USEFUL:     191859 USELESS:       6067
cpu0_L1D AVERAGE MISS LATENCY: 225 cycles
cpu0_L1I TOTAL        ACCESS:          0 HIT:          0 MISS:          0
cpu0_L1I LOAD         ACCESS:          0 HIT:          0 MISS:          0
cpu0_L1I RFO          ACCESS:          0 HIT:          0 MISS:          0
cpu0_L1I PREFETCH     ACCESS:          0 HIT:          0 MISS:          0
cpu0_L1I WRITE        ACCESS:          0 HIT:          0 MISS:          0
cpu0_L1I TRANSLATION  ACCESS:          0 HIT:          0 MISS:          0
cpu0_L1I PREFETCH REQUESTED:          0 ISSUED:          0 USEFUL:          0 USELESS:          0
cpu0_L1I AVERAGE MISS LATENCY: -nan cycles
cpu0_L2C TOTAL        ACCESS:     693987 HIT:     111353 MISS:     582634
cpu0_L2C LOAD         ACCESS:     311616 HIT:      46984 MISS:     264632
cpu0_L2C RFO          ACCESS:      14838 HIT:       2656 MISS:      12182
cpu0_L2C PREFETCH     ACCESS:     344094 HIT:      38457 MISS:     305637
cpu0_L2C WRITE        ACCESS:      16267 HIT:      16186 MISS:         81
cpu0_L2C TRANSLATION  ACCESS:       7172 HIT:       7070 MISS:        102
cpu0_L2C PREFETCH REQUESTED:     146162 ISSUED:     146162 USEFUL:      61933 USELESS:      11292
cpu0_L2C AVERAGE MISS LATENCY: 809.3 cycles
cpu0_STLB TOTAL        ACCESS:      13748 HIT:       6331 MISS:       7417
cpu0_STLB LOAD         ACCESS:      13748 HIT:       6331 MISS:       7417
cpu0_STLB RFO          ACCESS:          0 HIT:          0 MISS:          0
cpu0_STLB PREFETCH     ACCESS:          0 HIT:          0 MISS:          0
cpu0_STLB WRITE        ACCESS:          0 HIT:          0 MISS:          0
cpu0_STLB TRANSLATION  ACCESS:          0 HIT:          0 MISS:          0
cpu0_STLB PREFETCH REQUESTED:          0 ISSUED:          0 USEFUL:          0 USELESS:          0
cpu0_STLB AVERAGE MISS LATENCY: 226.8 cycles

DRAM Statistics

Channel 0 RQ ROW_BUFFER_HIT:     340382
  ROW_BUFFER_MISS:     134768
 AVG DBUS CONGESTED CYCLE: 3.762
WQ ROW_BUFFER_HIT: Channel 0 
  ROW_BUFFER_MISS:        996
  FULL:      10630
