WARNING: physical memory size is smaller than virtual memory size.

*** ChampSim Multicore Out-of-Order Simulator ***
Warmup Instructions: 25000000
Simulation Instructions: 25000000
Number of CPUs: 1
Page size: 4096

Off-chip DRAM Size: 4 GiB Channels: 1 Width: 64-bit Data Race: 800 MT/s
Heartbeat CPU 0 instructions: 10000003 cycles: 2500157 heartbeat IPC: 4 cumulative IPC: 4 (Simulation time: 00 hr 00 min 29 sec)
Heartbeat CPU 0 instructions: 20000003 cycles: 5000157 heartbeat IPC: 4 cumulative IPC: 4 (Simulation time: 00 hr 00 min 59 sec)
Warmup finished CPU 0 instructions: 25000003 cycles: 6250158 cumulative IPC: 4 (Simulation time: 00 hr 01 min 13 sec)
Warmup complete CPU 0 instructions: 25000003 cycles: 6250158 cumulative IPC: 4 (Simulation time: 00 hr 01 min 13 sec)
Heartbeat CPU 0 instructions: 30000003 cycles: 14081124 heartbeat IPC: 1.101 cumulative IPC: 0.6385 (Simulation time: 00 hr 02 min 11 sec)
Heartbeat CPU 0 instructions: 40000000 cycles: 29600785 heartbeat IPC: 0.6443 cumulative IPC: 0.6424 (Simulation time: 00 hr 04 min 05 sec)
Heartbeat CPU 0 instructions: 50000000 cycles: 45237568 heartbeat IPC: 0.6395 cumulative IPC: 0.6412 (Simulation time: 00 hr 06 min 02 sec)
Simulation finished CPU 0 instructions: 25000001 cycles: 38987412 cumulative IPC: 0.6412 (Simulation time: 00 hr 06 min 02 sec)
Simulation complete CPU 0 instructions: 25000001 cycles: 38987412 cumulative IPC: 0.6412 (Simulation time: 00 hr 06 min 02 sec)

ChampSim completed all CPUs

=== Simulation ===
CPU 0 runs ./traces/603.bwaves_s-1740B.champsimtrace.xz
Region of Interest Statistics

CPU 0 cumulative IPC: 0.6412 instructions: 25000001 cycles: 38987412
CPU 0 Branch Prediction Accuracy: 81.23% MPKI: 4.685 Average ROB Occupancy at Mispredict: 300.7
Branch type MPKI
BRANCH_DIRECT_JUMP: 0
BRANCH_INDIRECT: 0
BRANCH_CONDITIONAL: 4.68
BRANCH_DIRECT_CALL: 0
BRANCH_INDIRECT_CALL: 0
BRANCH_RETURN: 0

LLC TOTAL        ACCESS:     503616 HIT:      12626 MISS:     490990
LLC LOAD         ACCESS:     236061 HIT:      10414 MISS:     225647
LLC RFO          ACCESS:      12181 HIT:          0 MISS:      12181
LLC PREFETCH     ACCESS:     242838 HIT:       2052 MISS:     240786
LLC WRITE        ACCESS:      12262 HIT:        154 MISS:      12108
LLC TRANSLATION  ACCESS:        274 HIT:          6 MISS:        268
LLC PREFETCH REQUESTED:          0 ISSUED:          0 USEFUL:          0 USELESS:          0
LLC AVERAGE MISS LATENCY: 998.1 cycles
cpu0_DTLB TOTAL        ACCESS:    6671094 HIT:    6626855 MISS:      44239
cpu0_DTLB LOAD         ACCESS:    6671094 HIT:    6626855 MISS:      44239
cpu0_DTLB RFO          ACCESS:          0 HIT:          0 MISS:          0
cpu0_DTLB PREFETCH     ACCESS:          0 HIT:          0 MISS:          0
cpu0_DTLB WRITE        ACCESS:          0 HIT:          0 MISS:          0
cpu0_DTLB TRANSLATION  ACCESS:          0 HIT:          0 MISS:          0
cpu0_DTLB PREFETCH REQUESTED:          0 ISSUED:          0 USEFUL:          0 USELESS:          0
cpu0_DTLB AVERAGE MISS LATENCY: 36.77 cycles
cpu0_ITLB TOTAL        ACCESS:          0 HIT:          0 MISS:          0
cpu0_ITLB LOAD         ACCESS:          0 HIT:          0 MISS:          0
cpu0_ITLB RFO          ACCESS:          0 HIT:          0 MISS:          0
cpu0_ITLB PREFETCH     ACCESS:          0 HIT:          0 MISS:          0
cpu0_ITLB WRITE        ACCESS:          0 HIT:          0 MISS:          0
cpu0_ITLB TRANSLATION  ACCESS:          0 HIT:          0 MISS:          0
cpu0_ITLB PREFETCH REQUESTED:          0 ISSUED:          0 USEFUL:          0 USELESS:          0
cpu0_ITLB AVERAGE MISS LATENCY: -nan cycles
cpu0_L1D TOTAL        ACCESS:    9590848 HIT:    8366464 MISS:    1224384
cpu0_L1D LOAD         ACCESS:    6387006 HIT:    5631935 MISS:     755071
cpu0_L1D RFO          ACCESS:          0 HIT:          0 MISS:          0
cpu0_L1D PREFETCH     ACCESS:    1788049 HIT:    1389994 MISS:     398055
cpu0_L1D WRITE        ACCESS:    1408357 HIT:    1344373 MISS:      63984
cpu0_L1D TRANSLATION  ACCESS:       7436 HIT:        162 MISS:       7274
cpu0_L1D PREFETCH REQUESTED:    9380641 ISSUED:    1788049 USEFUL:     191423 USELESS:       6090
cpu0_L1D AVERAGE MISS LATENCY: 226 cycles
cpu0_L1I TOTAL        ACCESS:          0 HIT:          0 MISS:          0
cpu0_L1I LOAD         ACCESS:          0 HIT:          0 MISS:          0
cpu0_L1I RFO          ACCESS:          0 HIT:          0 MISS:          0
cpu0_L1I PREFETCH     ACCESS:          0 HIT:          0 MISS:          0
cpu0_L1I WRITE        ACCESS:          0 HIT:          0 MISS:          0
cpu0_L1I TRANSLATION  ACCESS:          0 HIT:          0 MISS:          0
cpu0_L1I PREFETCH REQUESTED:          0 ISSUED:          0 USEFUL:          0 USELESS:          0
cpu0_L1I AVERAGE MISS LATENCY: -nan cycles
cpu0_L2C TOTAL        ACCESS:     695857 HIT:     111933 MISS:     583924
cpu0_L2C LOAD         ACCESS:     311946 HIT:      47174 MISS:     264772
cpu0_L2C RFO          ACCESS:      14854 HIT:       2673 MISS:      12181
cpu0_L2C PREFETCH     ACCESS:     345539 HIT:      38933 MISS:     306606
cpu0_L2C WRITE        ACCESS:      16244 HIT:      16153 MISS:         91
cpu0_L2C TRANSLATION  ACCESS:       7274 HIT:       7000 MISS:        274
cpu0_L2C PREFETCH REQUESTED:     148051 ISSUED:     148051 USEFUL:      62873 USELESS:      11748
cpu0_L2C AVERAGE MISS LATENCY: 808.2 cycles
cpu0_STLB TOTAL        ACCESS:      30813 HIT:      23389 MISS:       7424
cpu0_STLB LOAD         ACCESS:      30813 HIT:      23389 MISS:       7424
cpu0_STLB RFO          ACCESS:          0 HIT:          0 MISS:          0
cpu0_STLB PREFETCH     ACCESS:          0 HIT:          0 MISS:          0
cpu0_STLB WRITE        ACCESS:          0 HIT:          0 MISS:          0
cpu0_STLB TRANSLATION  ACCESS:          0 HIT:          0 MISS:          0
cpu0_STLB PREFETCH REQUESTED:          0 ISSUED:          0 USEFUL:          0 USELESS:          0
cpu0_STLB AVERAGE MISS LATENCY: 248.9 cycles

DRAM Statistics

Channel 0 RQ ROW_BUFFER_HIT:     340005
  ROW_BUFFER_MISS:     135409
 AVG DBUS CONGESTED CYCLE: 3.766
WQ ROW_BUFFER_HIT: Channel 0 
  ROW_BUFFER_MISS:       1054
  FULL:      10452
