WARNING: physical memory size is smaller than virtual memory size.

*** ChampSim Multicore Out-of-Order Simulator ***
Warmup Instructions: 25000000
Simulation Instructions: 25000000
Number of CPUs: 1
Page size: 4096

Off-chip DRAM Size: 4 GiB Channels: 1 Width: 64-bit Data Race: 800 MT/s
Heartbeat CPU 0 instructions: 10000000 cycles: 3099497 heartbeat IPC: 3.226 cumulative IPC: 3.226 (Simulation time: 00 hr 00 min 32 sec)
Heartbeat CPU 0 instructions: 20000003 cycles: 6152830 heartbeat IPC: 3.275 cumulative IPC: 3.251 (Simulation time: 00 hr 01 min 06 sec)
Warmup finished CPU 0 instructions: 25000001 cycles: 7641438 cumulative IPC: 3.272 (Simulation time: 00 hr 01 min 24 sec)
Warmup complete CPU 0 instructions: 25000001 cycles: 7641438 cumulative IPC: 3.272 (Simulation time: 00 hr 01 min 24 sec)
Heartbeat CPU 0 instructions: 30000000 cycles: 16612477 heartbeat IPC: 0.9561 cumulative IPC: 0.5573 (Simulation time: 00 hr 02 min 21 sec)
Heartbeat CPU 0 instructions: 40000000 cycles: 34636259 heartbeat IPC: 0.5548 cumulative IPC: 0.5557 (Simulation time: 00 hr 04 min 11 sec)
Heartbeat CPU 0 instructions: 50000000 cycles: 57395086 heartbeat IPC: 0.4394 cumulative IPC: 0.5025 (Simulation time: 00 hr 06 min 42 sec)
Simulation finished CPU 0 instructions: 25000003 cycles: 49753650 cumulative IPC: 0.5025 (Simulation time: 00 hr 06 min 42 sec)
Simulation complete CPU 0 instructions: 25000003 cycles: 49753650 cumulative IPC: 0.5025 (Simulation time: 00 hr 06 min 42 sec)

ChampSim completed all CPUs

=== Simulation ===
CPU 0 runs ./traces/605.mcf_s-484B.champsimtrace.xz
Region of Interest Statistics

CPU 0 cumulative IPC: 0.5025 instructions: 25000003 cycles: 49753650
CPU 0 Branch Prediction Accuracy: 96.99% MPKI: 2.864 Average ROB Occupancy at Mispredict: 79.01
Branch type MPKI
BRANCH_DIRECT_JUMP: 0
BRANCH_INDIRECT: 0
BRANCH_CONDITIONAL: 2.86
BRANCH_DIRECT_CALL: 0
BRANCH_INDIRECT_CALL: 0
BRANCH_RETURN: 0

LLC TOTAL        ACCESS:     897172 HIT:     100018 MISS:     797154
LLC LOAD         ACCESS:     406403 HIT:      46142 MISS:     360261
LLC RFO          ACCESS:      47323 HIT:         14 MISS:      47309
LLC PREFETCH     ACCESS:     296925 HIT:      40445 MISS:     256480
LLC WRITE        ACCESS:     143227 HIT:      13161 MISS:     130066
LLC TRANSLATION  ACCESS:       3294 HIT:        256 MISS:       3038
LLC PREFETCH REQUESTED:          0 ISSUED:          0 USEFUL:          0 USELESS:          0
LLC AVERAGE MISS LATENCY: 558.1 cycles
cpu0_DTLB TOTAL        ACCESS:    7865736 HIT:    7751892 MISS:     113844
cpu0_DTLB LOAD         ACCESS:    7865736 HIT:    7751892 MISS:     113844
cpu0_DTLB RFO          ACCESS:          0 HIT:          0 MISS:          0
cpu0_DTLB PREFETCH     ACCESS:          0 HIT:          0 MISS:          0
cpu0_DTLB WRITE        ACCESS:          0 HIT:          0 MISS:          0
cpu0_DTLB TRANSLATION  ACCESS:          0 HIT:          0 MISS:          0
cpu0_DTLB PREFETCH REQUESTED:          0 ISSUED:          0 USEFUL:          0 USELESS:          0
cpu0_DTLB AVERAGE MISS LATENCY: 44.58 cycles
cpu0_ITLB TOTAL        ACCESS:          0 HIT:          0 MISS:          0
cpu0_ITLB LOAD         ACCESS:          0 HIT:          0 MISS:          0
cpu0_ITLB RFO          ACCESS:          0 HIT:          0 MISS:          0
cpu0_ITLB PREFETCH     ACCESS:          0 HIT:          0 MISS:          0
cpu0_ITLB WRITE        ACCESS:          0 HIT:          0 MISS:          0
cpu0_ITLB TRANSLATION  ACCESS:          0 HIT:          0 MISS:          0
cpu0_ITLB PREFETCH REQUESTED:          0 ISSUED:          0 USEFUL:          0 USELESS:          0
cpu0_ITLB AVERAGE MISS LATENCY: -nan cycles
cpu0_L1D TOTAL        ACCESS:   13397441 HIT:   12485682 MISS:     911759
cpu0_L1D LOAD         ACCESS:    4606101 HIT:    4091050 MISS:     515051
cpu0_L1D RFO          ACCESS:          0 HIT:          0 MISS:          0
cpu0_L1D PREFETCH     ACCESS:    1570803 HIT:    1406966 MISS:     163837
cpu0_L1D WRITE        ACCESS:    7205252 HIT:    6981075 MISS:     224177
cpu0_L1D TRANSLATION  ACCESS:      15285 HIT:       6591 MISS:       8694
cpu0_L1D PREFETCH REQUESTED:   16383875 ISSUED:    1570801 USEFUL:      12851 USELESS:      73839
cpu0_L1D AVERAGE MISS LATENCY: 410 cycles
cpu0_L1I TOTAL        ACCESS:          0 HIT:          0 MISS:          0
cpu0_L1I LOAD         ACCESS:          0 HIT:          0 MISS:          0
cpu0_L1I RFO          ACCESS:          0 HIT:          0 MISS:          0
cpu0_L1I PREFETCH     ACCESS:          0 HIT:          0 MISS:          0
cpu0_L1I WRITE        ACCESS:          0 HIT:          0 MISS:          0
cpu0_L1I TRANSLATION  ACCESS:          0 HIT:          0 MISS:          0
cpu0_L1I PREFETCH REQUESTED:          0 ISSUED:          0 USEFUL:          0 USELESS:          0
cpu0_L1I AVERAGE MISS LATENCY: -nan cycles
cpu0_L2C TOTAL        ACCESS:    1053522 HIT:     277324 MISS:     776198
cpu0_L2C LOAD         ACCESS:     482391 HIT:      65093 MISS:     417298
cpu0_L2C RFO          ACCESS:      49326 HIT:       2003 MISS:      47323
cpu0_L2C PREFETCH     ACCESS:     353678 HIT:      46081 MISS:     307597
cpu0_L2C WRITE        ACCESS:     159433 HIT:     158747 MISS:        686
cpu0_L2C TRANSLATION  ACCESS:       8694 HIT:       5400 MISS:       3294
cpu0_L2C PREFETCH REQUESTED:     266912 ISSUED:     266912 USEFUL:      72494 USELESS:       8611
cpu0_L2C AVERAGE MISS LATENCY: 520.9 cycles
cpu0_STLB TOTAL        ACCESS:      54651 HIT:      39392 MISS:      15259
cpu0_STLB LOAD         ACCESS:      54651 HIT:      39392 MISS:      15259
cpu0_STLB RFO          ACCESS:          0 HIT:          0 MISS:          0
cpu0_STLB PREFETCH     ACCESS:          0 HIT:          0 MISS:          0
cpu0_STLB WRITE        ACCESS:          0 HIT:          0 MISS:          0
cpu0_STLB TRANSLATION  ACCESS:          0 HIT:          0 MISS:          0
cpu0_STLB PREFETCH REQUESTED:          0 ISSUED:          0 USEFUL:          0 USELESS:          0
cpu0_STLB AVERAGE MISS LATENCY: 413.3 cycles

DRAM Statistics

Channel 0 RQ ROW_BUFFER_HIT:     274258
  ROW_BUFFER_MISS:     298331
 AVG DBUS CONGESTED CYCLE: 3.925
WQ ROW_BUFFER_HIT: Channel 0 
  ROW_BUFFER_MISS:      13827
  FULL:     130695
