WARNING: physical memory size is smaller than virtual memory size.

*** ChampSim Multicore Out-of-Order Simulator ***
Warmup Instructions: 25000000
Simulation Instructions: 25000000
Number of CPUs: 1
Page size: 4096

Off-chip DRAM Size: 4 GiB Channels: 1 Width: 64-bit Data Race: 800 MT/s
Heartbeat CPU 0 instructions: 10000000 cycles: 2500797 heartbeat IPC: 3.999 cumulative IPC: 3.999 (Simulation time: 00 hr 00 min 36 sec)
Heartbeat CPU 0 instructions: 20000002 cycles: 5001215 heartbeat IPC: 3.999 cumulative IPC: 3.999 (Simulation time: 00 hr 01 min 08 sec)
Warmup finished CPU 0 instructions: 25000002 cycles: 6254252 cumulative IPC: 3.997 (Simulation time: 00 hr 01 min 25 sec)
Warmup complete CPU 0 instructions: 25000002 cycles: 6254252 cumulative IPC: 3.997 (Simulation time: 00 hr 01 min 25 sec)
Heartbeat CPU 0 instructions: 30000000 cycles: 30675567 heartbeat IPC: 0.3895 cumulative IPC: 0.2047 (Simulation time: 00 hr 03 min 21 sec)
Heartbeat CPU 0 instructions: 40000001 cycles: 64880783 heartbeat IPC: 0.2924 cumulative IPC: 0.2559 (Simulation time: 00 hr 06 min 12 sec)
Heartbeat CPU 0 instructions: 50000000 cycles: 173564763 heartbeat IPC: 0.09201 cumulative IPC: 0.1494 (Simulation time: 00 hr 14 min 10 sec)
Simulation finished CPU 0 instructions: 25000000 cycles: 167310753 cumulative IPC: 0.1494 (Simulation time: 00 hr 14 min 10 sec)
Simulation complete CPU 0 instructions: 25000000 cycles: 167310753 cumulative IPC: 0.1494 (Simulation time: 00 hr 14 min 10 sec)

ChampSim completed all CPUs

=== Simulation ===
CPU 0 runs ./traces/605.mcf_s-994B.champsimtrace.xz
Region of Interest Statistics

CPU 0 cumulative IPC: 0.1494 instructions: 25000000 cycles: 167310753
CPU 0 Branch Prediction Accuracy: 91.07% MPKI: 22.99 Average ROB Occupancy at Mispredict: 33.91
Branch type MPKI
BRANCH_DIRECT_JUMP: 0.125
BRANCH_INDIRECT: 0
BRANCH_CONDITIONAL: 22.9
BRANCH_DIRECT_CALL: 0
BRANCH_INDIRECT_CALL: 0.00236
BRANCH_RETURN: 4e-05

LLC TOTAL        ACCESS:    1514717 HIT:      43422 MISS:    1471295
LLC LOAD         ACCESS:     724778 HIT:      10444 MISS:     714334
LLC RFO          ACCESS:       1876 HIT:       1317 MISS:        559
LLC PREFETCH     ACCESS:     496713 HIT:      10625 MISS:     486088
LLC WRITE        ACCESS:      59059 HIT:      12513 MISS:      46546
LLC TRANSLATION  ACCESS:     232291 HIT:       8523 MISS:     223768
LLC PREFETCH REQUESTED:          0 ISSUED:          0 USEFUL:          0 USELESS:          0
LLC AVERAGE MISS LATENCY: 321.5 cycles
cpu0_DTLB TOTAL        ACCESS:    7603780 HIT:    7141531 MISS:     462249
cpu0_DTLB LOAD         ACCESS:    7603780 HIT:    7141531 MISS:     462249
cpu0_DTLB RFO          ACCESS:          0 HIT:          0 MISS:          0
cpu0_DTLB PREFETCH     ACCESS:          0 HIT:          0 MISS:          0
cpu0_DTLB WRITE        ACCESS:          0 HIT:          0 MISS:          0
cpu0_DTLB TRANSLATION  ACCESS:          0 HIT:          0 MISS:          0
cpu0_DTLB PREFETCH REQUESTED:          0 ISSUED:          0 USEFUL:          0 USELESS:          0
cpu0_DTLB AVERAGE MISS LATENCY: 253.7 cycles
cpu0_ITLB TOTAL        ACCESS:       2013 HIT:       2013 MISS:          0
cpu0_ITLB LOAD         ACCESS:       2013 HIT:       2013 MISS:          0
cpu0_ITLB RFO          ACCESS:          0 HIT:          0 MISS:          0
cpu0_ITLB PREFETCH     ACCESS:          0 HIT:          0 MISS:          0
cpu0_ITLB WRITE        ACCESS:          0 HIT:          0 MISS:          0
cpu0_ITLB TRANSLATION  ACCESS:          0 HIT:          0 MISS:          0
cpu0_ITLB PREFETCH REQUESTED:          0 ISSUED:          0 USEFUL:          0 USELESS:          0
cpu0_ITLB AVERAGE MISS LATENCY: -nan cycles
cpu0_L1D TOTAL        ACCESS:   15737043 HIT:   13491691 MISS:    2245352
cpu0_L1D LOAD         ACCESS:    7119847 HIT:    6104635 MISS:    1015212
cpu0_L1D RFO          ACCESS:          0 HIT:          0 MISS:          0
cpu0_L1D PREFETCH     ACCESS:    5697358 HIT:    4823922 MISS:     873436
cpu0_L1D WRITE        ACCESS:    2521936 HIT:    2481368 MISS:      40568
cpu0_L1D TRANSLATION  ACCESS:     397902 HIT:      81766 MISS:     316136
cpu0_L1D PREFETCH REQUESTED:    7921100 ISSUED:    5697350 USEFUL:      48529 USELESS:     518164
cpu0_L1D AVERAGE MISS LATENCY: 229.1 cycles
cpu0_L1I TOTAL        ACCESS:       2013 HIT:       2013 MISS:          0
cpu0_L1I LOAD         ACCESS:       2013 HIT:       2013 MISS:          0
cpu0_L1I RFO          ACCESS:          0 HIT:          0 MISS:          0
cpu0_L1I PREFETCH     ACCESS:          0 HIT:          0 MISS:          0
cpu0_L1I WRITE        ACCESS:          0 HIT:          0 MISS:          0
cpu0_L1I TRANSLATION  ACCESS:          0 HIT:          0 MISS:          0
cpu0_L1I PREFETCH REQUESTED:          0 ISSUED:          0 USEFUL:          0 USELESS:          0
cpu0_L1I AVERAGE MISS LATENCY: -nan cycles
cpu0_L2C TOTAL        ACCESS:    2030055 HIT:     573886 MISS:    1456169
cpu0_L2C LOAD         ACCESS:     976019 HIT:     251226 MISS:     724793
cpu0_L2C RFO          ACCESS:      10703 HIT:       8827 MISS:       1876
cpu0_L2C PREFETCH     ACCESS:     646127 HIT:     149142 MISS:     496985
cpu0_L2C WRITE        ACCESS:      81394 HIT:      81170 MISS:        224
cpu0_L2C TRANSLATION  ACCESS:     315812 HIT:      83521 MISS:     232291
cpu0_L2C PREFETCH REQUESTED:      79346 ISSUED:      79346 USEFUL:      24222 USELESS:        294
cpu0_L2C AVERAGE MISS LATENCY: 345.7 cycles
cpu0_STLB TOTAL        ACCESS:     396888 HIT:     160105 MISS:     236783
cpu0_STLB LOAD         ACCESS:     396888 HIT:     160105 MISS:     236783
cpu0_STLB RFO          ACCESS:          0 HIT:          0 MISS:          0
cpu0_STLB PREFETCH     ACCESS:          0 HIT:          0 MISS:          0
cpu0_STLB WRITE        ACCESS:          0 HIT:          0 MISS:          0
cpu0_STLB TRANSLATION  ACCESS:          0 HIT:          0 MISS:          0
cpu0_STLB PREFETCH REQUESTED:          0 ISSUED:          0 USEFUL:          0 USELESS:          0
cpu0_STLB AVERAGE MISS LATENCY: 483.1 cycles

DRAM Statistics

Channel 0 RQ ROW_BUFFER_HIT:     189743
  ROW_BUFFER_MISS:    1234272
 AVG DBUS CONGESTED CYCLE: 3.919
WQ ROW_BUFFER_HIT: Channel 0 
  ROW_BUFFER_MISS:      11873
  FULL:      38553
