WARNING: physical memory size is smaller than virtual memory size.

*** ChampSim Multicore Out-of-Order Simulator ***
Warmup Instructions: 25000000
Simulation Instructions: 25000000
Number of CPUs: 1
Page size: 4096

Off-chip DRAM Size: 4 GiB Channels: 1 Width: 64-bit Data Race: 800 MT/s
Heartbeat CPU 0 instructions: 10000002 cycles: 2569988 heartbeat IPC: 3.891 cumulative IPC: 3.891 (Simulation time: 00 hr 00 min 29 sec)
Heartbeat CPU 0 instructions: 20000003 cycles: 5139700 heartbeat IPC: 3.891 cumulative IPC: 3.891 (Simulation time: 00 hr 00 min 59 sec)
Warmup finished CPU 0 instructions: 25000002 cycles: 6422252 cumulative IPC: 3.893 (Simulation time: 00 hr 01 min 14 sec)
Warmup complete CPU 0 instructions: 25000002 cycles: 6422252 cumulative IPC: 3.893 (Simulation time: 00 hr 01 min 14 sec)
Heartbeat CPU 0 instructions: 30000003 cycles: 24921460 heartbeat IPC: 0.5055 cumulative IPC: 0.2703 (Simulation time: 00 hr 02 min 40 sec)
Heartbeat CPU 0 instructions: 40000001 cycles: 61927616 heartbeat IPC: 0.2702 cumulative IPC: 0.2702 (Simulation time: 00 hr 05 min 32 sec)
Heartbeat CPU 0 instructions: 50000003 cycles: 99243531 heartbeat IPC: 0.268 cumulative IPC: 0.2693 (Simulation time: 00 hr 08 min 24 sec)
Simulation finished CPU 0 instructions: 25000001 cycles: 92821280 cumulative IPC: 0.2693 (Simulation time: 00 hr 08 min 24 sec)
Simulation complete CPU 0 instructions: 25000001 cycles: 92821280 cumulative IPC: 0.2693 (Simulation time: 00 hr 08 min 24 sec)

ChampSim completed all CPUs

=== Simulation ===
CPU 0 runs ./traces/605.mcf_s-1152B.champsimtrace.xz
Region of Interest Statistics

CPU 0 cumulative IPC: 0.2693 instructions: 25000001 cycles: 92821280
CPU 0 Branch Prediction Accuracy: 85.61% MPKI: 35.89 Average ROB Occupancy at Mispredict: 12.29
Branch type MPKI
BRANCH_DIRECT_JUMP: 0.211
BRANCH_INDIRECT: 0
BRANCH_CONDITIONAL: 35.7
BRANCH_DIRECT_CALL: 0
BRANCH_INDIRECT_CALL: 0.00464
BRANCH_RETURN: 0

LLC TOTAL        ACCESS:    1867923 HIT:     954975 MISS:     912948
LLC LOAD         ACCESS:     767019 HIT:     479740 MISS:     287279
LLC RFO          ACCESS:      75438 HIT:      60954 MISS:      14484
LLC PREFETCH     ACCESS:     916186 HIT:     323706 MISS:     592480
LLC WRITE        ACCESS:     106357 HIT:      89394 MISS:      16963
LLC TRANSLATION  ACCESS:       2923 HIT:       1181 MISS:       1742
LLC PREFETCH REQUESTED:          0 ISSUED:          0 USEFUL:          0 USELESS:          0
LLC AVERAGE MISS LATENCY: 358.2 cycles
cpu0_DTLB TOTAL        ACCESS:    7663500 HIT:    6910175 MISS:     753325
cpu0_DTLB LOAD         ACCESS:    7663500 HIT:    6910175 MISS:     753325
cpu0_DTLB RFO          ACCESS:          0 HIT:          0 MISS:          0
cpu0_DTLB PREFETCH     ACCESS:          0 HIT:          0 MISS:          0
cpu0_DTLB WRITE        ACCESS:          0 HIT:          0 MISS:          0
cpu0_DTLB TRANSLATION  ACCESS:          0 HIT:          0 MISS:          0
cpu0_DTLB PREFETCH REQUESTED:          0 ISSUED:          0 USEFUL:          0 USELESS:          0
cpu0_DTLB AVERAGE MISS LATENCY: 9.081 cycles
cpu0_ITLB TOTAL        ACCESS:      14175 HIT:      14175 MISS:          0
cpu0_ITLB LOAD         ACCESS:      14175 HIT:      14175 MISS:          0
cpu0_ITLB RFO          ACCESS:          0 HIT:          0 MISS:          0
cpu0_ITLB PREFETCH     ACCESS:          0 HIT:          0 MISS:          0
cpu0_ITLB WRITE        ACCESS:          0 HIT:          0 MISS:          0
cpu0_ITLB TRANSLATION  ACCESS:          0 HIT:          0 MISS:          0
cpu0_ITLB PREFETCH REQUESTED:          0 ISSUED:          0 USEFUL:          0 USELESS:          0
cpu0_ITLB AVERAGE MISS LATENCY: -nan cycles
cpu0_L1D TOTAL        ACCESS:   15892028 HIT:   12383215 MISS:    3508813
cpu0_L1D LOAD         ACCESS:    7124111 HIT:    5610360 MISS:    1513751
cpu0_L1D RFO          ACCESS:          0 HIT:          0 MISS:          0
cpu0_L1D PREFETCH     ACCESS:    6167191 HIT:    4463970 MISS:    1703221
cpu0_L1D WRITE        ACCESS:    2592540 HIT:    2304971 MISS:     287569
cpu0_L1D TRANSLATION  ACCESS:       8186 HIT:       3914 MISS:       4272
cpu0_L1D PREFETCH REQUESTED:    8069627 ISSUED:    6167191 USEFUL:     277725 USELESS:     762494
cpu0_L1D AVERAGE MISS LATENCY: 96.56 cycles
cpu0_L1I TOTAL        ACCESS:      16035 HIT:      16035 MISS:          0
cpu0_L1I LOAD         ACCESS:      16035 HIT:      16035 MISS:          0
cpu0_L1I RFO          ACCESS:          0 HIT:          0 MISS:          0
cpu0_L1I PREFETCH     ACCESS:          0 HIT:          0 MISS:          0
cpu0_L1I WRITE        ACCESS:          0 HIT:          0 MISS:          0
cpu0_L1I TRANSLATION  ACCESS:          0 HIT:          0 MISS:          0
cpu0_L1I PREFETCH REQUESTED:          0 ISSUED:          0 USEFUL:          0 USELESS:          0
cpu0_L1I AVERAGE MISS LATENCY: -nan cycles
cpu0_L2C TOTAL        ACCESS:    2478081 HIT:     658647 MISS:    1819434
cpu0_L2C LOAD         ACCESS:    1053913 HIT:     276076 MISS:     777837
cpu0_L2C RFO          ACCESS:      97580 HIT:      22142 MISS:      75438
cpu0_L2C PREFETCH     ACCESS:    1178495 HIT:     215505 MISS:     962990
cpu0_L2C WRITE        ACCESS:     143821 HIT:     143575 MISS:        246
cpu0_L2C TRANSLATION  ACCESS:       4272 HIT:       1349 MISS:       2923
cpu0_L2C PREFETCH REQUESTED:     138210 ISSUED:     138210 USEFUL:      46081 USELESS:       7499
cpu0_L2C AVERAGE MISS LATENCY: 195.9 cycles
cpu0_STLB TOTAL        ACCESS:     639503 HIT:     631381 MISS:       8122
cpu0_STLB LOAD         ACCESS:     639503 HIT:     631381 MISS:       8122
cpu0_STLB RFO          ACCESS:          0 HIT:          0 MISS:          0
cpu0_STLB PREFETCH     ACCESS:          0 HIT:          0 MISS:          0
cpu0_STLB WRITE        ACCESS:          0 HIT:          0 MISS:          0
cpu0_STLB TRANSLATION  ACCESS:          0 HIT:          0 MISS:          0
cpu0_STLB PREFETCH REQUESTED:          0 ISSUED:          0 USEFUL:          0 USELESS:          0
cpu0_STLB AVERAGE MISS LATENCY: 250.3 cycles

DRAM Statistics

Channel 0 RQ ROW_BUFFER_HIT:     123395
  ROW_BUFFER_MISS:     759675
 AVG DBUS CONGESTED CYCLE: 3.859
WQ ROW_BUFFER_HIT: Channel 0 
  ROW_BUFFER_MISS:       5271
  FULL:      18557
