WARNING: physical memory size is smaller than virtual memory size.

*** ChampSim Multicore Out-of-Order Simulator ***
Warmup Instructions: 25000000
Simulation Instructions: 25000000
Number of CPUs: 1
Page size: 4096

Off-chip DRAM Size: 4 GiB Channels: 1 Width: 64-bit Data Race: 800 MT/s
Heartbeat CPU 0 instructions: 10000002 cycles: 2591382 heartbeat IPC: 3.859 cumulative IPC: 3.859 (Simulation time: 00 hr 00 min 34 sec)
Heartbeat CPU 0 instructions: 20000003 cycles: 5188939 heartbeat IPC: 3.85 cumulative IPC: 3.854 (Simulation time: 00 hr 01 min 09 sec)
Warmup finished CPU 0 instructions: 25000002 cycles: 6487821 cumulative IPC: 3.853 (Simulation time: 00 hr 01 min 27 sec)
Warmup complete CPU 0 instructions: 25000002 cycles: 6487821 cumulative IPC: 3.853 (Simulation time: 00 hr 01 min 27 sec)
Heartbeat CPU 0 instructions: 30000000 cycles: 22600433 heartbeat IPC: 0.5743 cumulative IPC: 0.3103 (Simulation time: 00 hr 02 min 50 sec)
Heartbeat CPU 0 instructions: 40000001 cycles: 53164032 heartbeat IPC: 0.3272 cumulative IPC: 0.3214 (Simulation time: 00 hr 05 min 29 sec)
Heartbeat CPU 0 instructions: 50000001 cycles: 82445087 heartbeat IPC: 0.3415 cumulative IPC: 0.3291 (Simulation time: 00 hr 08 min 02 sec)
Simulation finished CPU 0 instructions: 25000003 cycles: 75957268 cumulative IPC: 0.3291 (Simulation time: 00 hr 08 min 02 sec)
Simulation complete CPU 0 instructions: 25000003 cycles: 75957268 cumulative IPC: 0.3291 (Simulation time: 00 hr 08 min 02 sec)

ChampSim completed all CPUs

=== Simulation ===
CPU 0 runs ./traces/605.mcf_s-665B.champsimtrace.xz
Region of Interest Statistics

CPU 0 cumulative IPC: 0.3291 instructions: 25000003 cycles: 75957268
CPU 0 Branch Prediction Accuracy: 85.71% MPKI: 35.61 Average ROB Occupancy at Mispredict: 12.81
Branch type MPKI
BRANCH_DIRECT_JUMP: 0.211
BRANCH_INDIRECT: 0
BRANCH_CONDITIONAL: 35.4
BRANCH_DIRECT_CALL: 0
BRANCH_INDIRECT_CALL: 0.00512
BRANCH_RETURN: 0

LLC TOTAL        ACCESS:    1307058 HIT:     636366 MISS:     670692
LLC LOAD         ACCESS:     501439 HIT:     285215 MISS:     216224
LLC RFO          ACCESS:      80149 HIT:      64203 MISS:      15946
LLC PREFETCH     ACCESS:     616746 HIT:     198814 MISS:     417932
LLC WRITE        ACCESS:     105518 HIT:      86786 MISS:      18732
LLC TRANSLATION  ACCESS:       3206 HIT:       1348 MISS:       1858
LLC PREFETCH REQUESTED:          0 ISSUED:          0 USEFUL:          0 USELESS:          0
LLC AVERAGE MISS LATENCY: 354.8 cycles
cpu0_DTLB TOTAL        ACCESS:    7783292 HIT:    7248402 MISS:     534890
cpu0_DTLB LOAD         ACCESS:    7783292 HIT:    7248402 MISS:     534890
cpu0_DTLB RFO          ACCESS:          0 HIT:          0 MISS:          0
cpu0_DTLB PREFETCH     ACCESS:          0 HIT:          0 MISS:          0
cpu0_DTLB WRITE        ACCESS:          0 HIT:          0 MISS:          0
cpu0_DTLB TRANSLATION  ACCESS:          0 HIT:          0 MISS:          0
cpu0_DTLB PREFETCH REQUESTED:          0 ISSUED:          0 USEFUL:          0 USELESS:          0
cpu0_DTLB AVERAGE MISS LATENCY: 9.09 cycles
cpu0_ITLB TOTAL        ACCESS:      10093 HIT:      10093 MISS:          0
cpu0_ITLB LOAD         ACCESS:      10093 HIT:      10093 MISS:          0
cpu0_ITLB RFO          ACCESS:          0 HIT:          0 MISS:          0
cpu0_ITLB PREFETCH     ACCESS:          0 HIT:          0 MISS:          0
cpu0_ITLB WRITE        ACCESS:          0 HIT:          0 MISS:          0
cpu0_ITLB TRANSLATION  ACCESS:          0 HIT:          0 MISS:          0
cpu0_ITLB PREFETCH REQUESTED:          0 ISSUED:          0 USEFUL:          0 USELESS:          0
cpu0_ITLB AVERAGE MISS LATENCY: -nan cycles
cpu0_L1D TOTAL        ACCESS:   16116326 HIT:   13499178 MISS:    2617148
cpu0_L1D LOAD         ACCESS:    7059486 HIT:    5978817 MISS:    1080669
cpu0_L1D RFO          ACCESS:          0 HIT:          0 MISS:          0
cpu0_L1D PREFETCH     ACCESS:    6177089 HIT:    4945840 MISS:    1231249
cpu0_L1D WRITE        ACCESS:    2873110 HIT:    2572126 MISS:     300984
cpu0_L1D TRANSLATION  ACCESS:       6641 HIT:       2395 MISS:       4246
cpu0_L1D PREFETCH REQUESTED:    7292017 ISSUED:    6177081 USEFUL:     206198 USELESS:     588216
cpu0_L1D AVERAGE MISS LATENCY: 96.38 cycles
cpu0_L1I TOTAL        ACCESS:      11241 HIT:      11241 MISS:          0
cpu0_L1I LOAD         ACCESS:      11241 HIT:      11241 MISS:          0
cpu0_L1I RFO          ACCESS:          0 HIT:          0 MISS:          0
cpu0_L1I PREFETCH     ACCESS:          0 HIT:          0 MISS:          0
cpu0_L1I WRITE        ACCESS:          0 HIT:          0 MISS:          0
cpu0_L1I TRANSLATION  ACCESS:          0 HIT:          0 MISS:          0
cpu0_L1I PREFETCH REQUESTED:          0 ISSUED:          0 USEFUL:          0 USELESS:          0
cpu0_L1I AVERAGE MISS LATENCY: -nan cycles
cpu0_L2C TOTAL        ACCESS:    1953900 HIT:     725478 MISS:    1228422
cpu0_L2C LOAD         ACCESS:     810893 HIT:     304547 MISS:     506346
cpu0_L2C RFO          ACCESS:     104290 HIT:      24141 MISS:      80149
cpu0_L2C PREFETCH     ACCESS:     882981 HIT:     244434 MISS:     638547
cpu0_L2C WRITE        ACCESS:     151491 HIT:     151317 MISS:        174
cpu0_L2C TRANSLATION  ACCESS:       4245 HIT:       1039 MISS:       3206
cpu0_L2C PREFETCH REQUESTED:      88524 ISSUED:      88524 USEFUL:      30765 USELESS:       7496
cpu0_L2C AVERAGE MISS LATENCY: 211.9 cycles
cpu0_STLB TOTAL        ACCESS:     444621 HIT:     438016 MISS:       6605
cpu0_STLB LOAD         ACCESS:     444621 HIT:     438016 MISS:       6605
cpu0_STLB RFO          ACCESS:          0 HIT:          0 MISS:          0
cpu0_STLB PREFETCH     ACCESS:          0 HIT:          0 MISS:          0
cpu0_STLB WRITE        ACCESS:          0 HIT:          0 MISS:          0
cpu0_STLB TRANSLATION  ACCESS:          0 HIT:          0 MISS:          0
cpu0_STLB PREFETCH REQUESTED:          0 ISSUED:          0 USEFUL:          0 USELESS:          0
cpu0_STLB AVERAGE MISS LATENCY: 229.1 cycles

DRAM Statistics

Channel 0 RQ ROW_BUFFER_HIT:      66316
  ROW_BUFFER_MISS:     581822
 AVG DBUS CONGESTED CYCLE: 3.885
WQ ROW_BUFFER_HIT: Channel 0 
  ROW_BUFFER_MISS:       3775
  FULL:      20566
