WARNING: physical memory size is smaller than virtual memory size.

*** ChampSim Multicore Out-of-Order Simulator ***
Warmup Instructions: 25000000
Simulation Instructions: 25000000
Number of CPUs: 1
Page size: 4096

Off-chip DRAM Size: 4 GiB Channels: 1 Width: 64-bit Data Race: 800 MT/s
Heartbeat CPU 0 instructions: 10000000 cycles: 2505993 heartbeat IPC: 3.99 cumulative IPC: 3.99 (Simulation time: 00 hr 00 min 33 sec)
Heartbeat CPU 0 instructions: 20000001 cycles: 5012142 heartbeat IPC: 3.99 cumulative IPC: 3.99 (Simulation time: 00 hr 01 min 08 sec)
Warmup finished CPU 0 instructions: 25000002 cycles: 6263738 cumulative IPC: 3.991 (Simulation time: 00 hr 01 min 25 sec)
Warmup complete CPU 0 instructions: 25000002 cycles: 6263738 cumulative IPC: 3.991 (Simulation time: 00 hr 01 min 25 sec)
Heartbeat CPU 0 instructions: 30000000 cycles: 69711971 heartbeat IPC: 0.1546 cumulative IPC: 0.0788 (Simulation time: 00 hr 06 min 01 sec)
Heartbeat CPU 0 instructions: 40000001 cycles: 186828445 heartbeat IPC: 0.08539 cumulative IPC: 0.08307 (Simulation time: 00 hr 14 min 32 sec)
Heartbeat CPU 0 instructions: 50000000 cycles: 304352731 heartbeat IPC: 0.08509 cumulative IPC: 0.08387 (Simulation time: 00 hr 20 min 28 sec)
Simulation finished CPU 0 instructions: 25000000 cycles: 298089004 cumulative IPC: 0.08387 (Simulation time: 00 hr 20 min 28 sec)
Simulation complete CPU 0 instructions: 25000000 cycles: 298089004 cumulative IPC: 0.08387 (Simulation time: 00 hr 20 min 28 sec)

ChampSim completed all CPUs

=== Simulation ===
CPU 0 runs ./traces/605.mcf_s-782B.champsimtrace.xz
Region of Interest Statistics

CPU 0 cumulative IPC: 0.08387 instructions: 25000000 cycles: 298089004
CPU 0 Branch Prediction Accuracy: 83.68% MPKI: 49.87 Average ROB Occupancy at Mispredict: 4.387
Branch type MPKI
BRANCH_DIRECT_JUMP: 1.03
BRANCH_INDIRECT: 0
BRANCH_CONDITIONAL: 48.8
BRANCH_DIRECT_CALL: 4e-05
BRANCH_INDIRECT_CALL: 0.00088
BRANCH_RETURN: 0

LLC TOTAL        ACCESS:    5973592 HIT:    2544294 MISS:    3429298
LLC LOAD         ACCESS:    2595071 HIT:    1457445 MISS:    1137626
LLC RFO          ACCESS:       7270 HIT:       4866 MISS:       2404
LLC PREFETCH     ACCESS:    3284742 HIT:    1030989 MISS:    2253753
LLC WRITE        ACCESS:      78648 HIT:      49412 MISS:      29236
LLC TRANSLATION  ACCESS:       7861 HIT:       1582 MISS:       6279
LLC PREFETCH REQUESTED:          0 ISSUED:          0 USEFUL:          0 USELESS:          0
LLC AVERAGE MISS LATENCY: 387.8 cycles
cpu0_DTLB TOTAL        ACCESS:    6891046 HIT:    4565530 MISS:    2325516
cpu0_DTLB LOAD         ACCESS:    6891046 HIT:    4565530 MISS:    2325516
cpu0_DTLB RFO          ACCESS:          0 HIT:          0 MISS:          0
cpu0_DTLB PREFETCH     ACCESS:          0 HIT:          0 MISS:          0
cpu0_DTLB WRITE        ACCESS:          0 HIT:          0 MISS:          0
cpu0_DTLB TRANSLATION  ACCESS:          0 HIT:          0 MISS:          0
cpu0_DTLB PREFETCH REQUESTED:          0 ISSUED:          0 USEFUL:          0 USELESS:          0
cpu0_DTLB AVERAGE MISS LATENCY: 11.02 cycles
cpu0_ITLB TOTAL        ACCESS:      25178 HIT:      25178 MISS:          0
cpu0_ITLB LOAD         ACCESS:      25178 HIT:      25178 MISS:          0
cpu0_ITLB RFO          ACCESS:          0 HIT:          0 MISS:          0
cpu0_ITLB PREFETCH     ACCESS:          0 HIT:          0 MISS:          0
cpu0_ITLB WRITE        ACCESS:          0 HIT:          0 MISS:          0
cpu0_ITLB TRANSLATION  ACCESS:          0 HIT:          0 MISS:          0
cpu0_ITLB PREFETCH REQUESTED:          0 ISSUED:          0 USEFUL:          0 USELESS:          0
cpu0_ITLB AVERAGE MISS LATENCY: -nan cycles
cpu0_L1D TOTAL        ACCESS:   13833625 HIT:    3915498 MISS:    9918127
cpu0_L1D LOAD         ACCESS:    7144073 HIT:    2739374 MISS:    4404699
cpu0_L1D RFO          ACCESS:          0 HIT:          0 MISS:          0
cpu0_L1D PREFETCH     ACCESS:    6205043 HIT:     736244 MISS:    5468799
cpu0_L1D WRITE        ACCESS:     455322 HIT:     423734 MISS:      31588
cpu0_L1D TRANSLATION  ACCESS:      29187 HIT:      16146 MISS:      13041
cpu0_L1D PREFETCH REQUESTED:   17122416 ISSUED:    6205035 USEFUL:     970511 USELESS:    2157996
cpu0_L1D AVERAGE MISS LATENCY: 135.4 cycles
cpu0_L1I TOTAL        ACCESS:      28042 HIT:      28042 MISS:          0
cpu0_L1I LOAD         ACCESS:      28042 HIT:      28042 MISS:          0
cpu0_L1I RFO          ACCESS:          0 HIT:          0 MISS:          0
cpu0_L1I PREFETCH     ACCESS:          0 HIT:          0 MISS:          0
cpu0_L1I WRITE        ACCESS:          0 HIT:          0 MISS:          0
cpu0_L1I TRANSLATION  ACCESS:          0 HIT:          0 MISS:          0
cpu0_L1I PREFETCH REQUESTED:          0 ISSUED:          0 USEFUL:          0 USELESS:          0
cpu0_L1I AVERAGE MISS LATENCY: -nan cycles
cpu0_L2C TOTAL        ACCESS:    6851821 HIT:     720425 MISS:    6131396
cpu0_L2C LOAD         ACCESS:    2965902 HIT:     317779 MISS:    2648123
cpu0_L2C RFO          ACCESS:       7475 HIT:        205 MISS:       7270
cpu0_L2C PREFETCH     ACCESS:    3781635 HIT:     313495 MISS:    3468140
cpu0_L2C WRITE        ACCESS:      83774 HIT:      83772 MISS:          2
cpu0_L2C TRANSLATION  ACCESS:      13035 HIT:       5174 MISS:       7861
cpu0_L2C PREFETCH REQUESTED:     653024 ISSUED:     653024 USEFUL:     179008 USELESS:      23657
cpu0_L2C AVERAGE MISS LATENCY: 229.6 cycles
cpu0_STLB TOTAL        ACCESS:    2203053 HIT:    2174087 MISS:      28966
cpu0_STLB LOAD         ACCESS:    2203053 HIT:    2174087 MISS:      28966
cpu0_STLB RFO          ACCESS:          0 HIT:          0 MISS:          0
cpu0_STLB PREFETCH     ACCESS:          0 HIT:          0 MISS:          0
cpu0_STLB WRITE        ACCESS:          0 HIT:          0 MISS:          0
cpu0_STLB TRANSLATION  ACCESS:          0 HIT:          0 MISS:          0
cpu0_STLB PREFETCH REQUESTED:          0 ISSUED:          0 USEFUL:          0 USELESS:          0
cpu0_STLB AVERAGE MISS LATENCY: 304 cycles

DRAM Statistics

Channel 0 RQ ROW_BUFFER_HIT:     323972
  ROW_BUFFER_MISS:    2938462
 AVG DBUS CONGESTED CYCLE: 3.853
WQ ROW_BUFFER_HIT: Channel 0 
  ROW_BUFFER_MISS:       1804
  FULL:      33558
