WARNING: physical memory size is smaller than virtual memory size.

*** ChampSim Multicore Out-of-Order Simulator ***
Warmup Instructions: 25000000
Simulation Instructions: 25000000
Number of CPUs: 1
Page size: 4096

Off-chip DRAM Size: 4 GiB Channels: 1 Width: 64-bit Data Race: 800 MT/s
Heartbeat CPU 0 instructions: 10000003 cycles: 2500090 heartbeat IPC: 4 cumulative IPC: 4 (Simulation time: 00 hr 00 min 37 sec)
Heartbeat CPU 0 instructions: 20000003 cycles: 5000090 heartbeat IPC: 4 cumulative IPC: 4 (Simulation time: 00 hr 01 min 16 sec)
Warmup finished CPU 0 instructions: 25000003 cycles: 6250091 cumulative IPC: 4 (Simulation time: 00 hr 01 min 35 sec)
Warmup complete CPU 0 instructions: 25000003 cycles: 6250091 cumulative IPC: 4 (Simulation time: 00 hr 01 min 35 sec)
Heartbeat CPU 0 instructions: 30000001 cycles: 41683542 heartbeat IPC: 0.2726 cumulative IPC: 0.1411 (Simulation time: 00 hr 05 min 34 sec)
Heartbeat CPU 0 instructions: 40000002 cycles: 119809677 heartbeat IPC: 0.128 cumulative IPC: 0.1321 (Simulation time: 00 hr 11 min 10 sec)
Heartbeat CPU 0 instructions: 50000000 cycles: 197692742 heartbeat IPC: 0.1284 cumulative IPC: 0.1306 (Simulation time: 00 hr 15 min 39 sec)
Simulation finished CPU 0 instructions: 25000001 cycles: 191442653 cumulative IPC: 0.1306 (Simulation time: 00 hr 15 min 39 sec)
Simulation complete CPU 0 instructions: 25000001 cycles: 191442653 cumulative IPC: 0.1306 (Simulation time: 00 hr 15 min 39 sec)

ChampSim completed all CPUs

=== Simulation ===
CPU 0 runs ./traces/605.mcf_s-1536B.champsimtrace.xz
Region of Interest Statistics

CPU 0 cumulative IPC: 0.1306 instructions: 25000001 cycles: 191442653
CPU 0 Branch Prediction Accuracy: 99.97% MPKI: 0.0528 Average ROB Occupancy at Mispredict: 259.7
Branch type MPKI
BRANCH_DIRECT_JUMP: 0
BRANCH_INDIRECT: 0
BRANCH_CONDITIONAL: 0.0528
BRANCH_DIRECT_CALL: 0
BRANCH_INDIRECT_CALL: 0
BRANCH_RETURN: 0

LLC TOTAL        ACCESS:    2872052 HIT:     240670 MISS:    2631382
LLC LOAD         ACCESS:     935091 HIT:      63952 MISS:     871139
LLC RFO          ACCESS:      69360 HIT:        198 MISS:      69162
LLC PREFETCH     ACCESS:     748946 HIT:      79363 MISS:     669583
LLC WRITE        ACCESS:     554560 HIT:      92894 MISS:     461666
LLC TRANSLATION  ACCESS:     564095 HIT:       4263 MISS:     559832
LLC PREFETCH REQUESTED:          0 ISSUED:          0 USEFUL:          0 USELESS:          0
LLC AVERAGE MISS LATENCY: 983.9 cycles
cpu0_DTLB TOTAL        ACCESS:    4523125 HIT:    3006228 MISS:    1516897
cpu0_DTLB LOAD         ACCESS:    4523125 HIT:    3006228 MISS:    1516897
cpu0_DTLB RFO          ACCESS:          0 HIT:          0 MISS:          0
cpu0_DTLB PREFETCH     ACCESS:          0 HIT:          0 MISS:          0
cpu0_DTLB WRITE        ACCESS:          0 HIT:          0 MISS:          0
cpu0_DTLB TRANSLATION  ACCESS:          0 HIT:          0 MISS:          0
cpu0_DTLB PREFETCH REQUESTED:          0 ISSUED:          0 USEFUL:          0 USELESS:          0
cpu0_DTLB AVERAGE MISS LATENCY: 473.8 cycles
cpu0_ITLB TOTAL        ACCESS:          0 HIT:          0 MISS:          0
cpu0_ITLB LOAD         ACCESS:          0 HIT:          0 MISS:          0
cpu0_ITLB RFO          ACCESS:          0 HIT:          0 MISS:          0
cpu0_ITLB PREFETCH     ACCESS:          0 HIT:          0 MISS:          0
cpu0_ITLB WRITE        ACCESS:          0 HIT:          0 MISS:          0
cpu0_ITLB TRANSLATION  ACCESS:          0 HIT:          0 MISS:          0
cpu0_ITLB PREFETCH REQUESTED:          0 ISSUED:          0 USEFUL:          0 USELESS:          0
cpu0_ITLB AVERAGE MISS LATENCY: -nan cycles
cpu0_L1D TOTAL        ACCESS:   11769817 HIT:    5874212 MISS:    5895605
cpu0_L1D LOAD         ACCESS:    4341717 HIT:    2396655 MISS:    1945062
cpu0_L1D RFO          ACCESS:          0 HIT:          0 MISS:          0
cpu0_L1D PREFETCH     ACCESS:    5704259 HIT:    2416300 MISS:    3287959
cpu0_L1D WRITE        ACCESS:    1071259 HIT:     994920 MISS:      76339
cpu0_L1D TRANSLATION  ACCESS:     652582 HIT:      66337 MISS:     586245
cpu0_L1D PREFETCH REQUESTED:   26085289 ISSUED:    5704252 USEFUL:       3329 USELESS:     962828
cpu0_L1D AVERAGE MISS LATENCY: 445.8 cycles
cpu0_L1I TOTAL        ACCESS:          0 HIT:          0 MISS:          0
cpu0_L1I LOAD         ACCESS:          0 HIT:          0 MISS:          0
cpu0_L1I RFO          ACCESS:          0 HIT:          0 MISS:          0
cpu0_L1I PREFETCH     ACCESS:          0 HIT:          0 MISS:          0
cpu0_L1I WRITE        ACCESS:          0 HIT:          0 MISS:          0
cpu0_L1I TRANSLATION  ACCESS:          0 HIT:          0 MISS:          0
cpu0_L1I PREFETCH REQUESTED:          0 ISSUED:          0 USEFUL:          0 USELESS:          0
cpu0_L1I AVERAGE MISS LATENCY: -nan cycles
cpu0_L2C TOTAL        ACCESS:    3517987 HIT:    1194823 MISS:    2323164
cpu0_L2C LOAD         ACCESS:    1233803 HIT:     296493 MISS:     937310
cpu0_L2C RFO          ACCESS:      76252 HIT:       6892 MISS:      69360
cpu0_L2C PREFETCH     ACCESS:    1064412 HIT:     312015 MISS:     752397
cpu0_L2C WRITE        ACCESS:     561238 HIT:     561236 MISS:          2
cpu0_L2C TRANSLATION  ACCESS:     582282 HIT:      18187 MISS:     564095
cpu0_L2C PREFETCH REQUESTED:      98246 ISSUED:      98246 USEFUL:      14067 USELESS:      19276
cpu0_L2C AVERAGE MISS LATENCY: 1128 cycles
cpu0_STLB TOTAL        ACCESS:     664129 HIT:     102102 MISS:     562027
cpu0_STLB LOAD         ACCESS:     664129 HIT:     102102 MISS:     562027
cpu0_STLB RFO          ACCESS:          0 HIT:          0 MISS:          0
cpu0_STLB PREFETCH     ACCESS:          0 HIT:          0 MISS:          0
cpu0_STLB WRITE        ACCESS:          0 HIT:          0 MISS:          0
cpu0_STLB TRANSLATION  ACCESS:          0 HIT:          0 MISS:          0
cpu0_STLB PREFETCH REQUESTED:          0 ISSUED:          0 USEFUL:          0 USELESS:          0
cpu0_STLB AVERAGE MISS LATENCY: 1284 cycles

DRAM Statistics

Channel 0 RQ ROW_BUFFER_HIT:     113085
  ROW_BUFFER_MISS:    2053096
 AVG DBUS CONGESTED CYCLE: 3.98
WQ ROW_BUFFER_HIT: Channel 0 
  ROW_BUFFER_MISS:       7084
  FULL:     547594
