WARNING: physical memory size is smaller than virtual memory size.

*** ChampSim Multicore Out-of-Order Simulator ***
Warmup Instructions: 25000000
Simulation Instructions: 25000000
Number of CPUs: 1
Page size: 4096

Off-chip DRAM Size: 4 GiB Channels: 1 Width: 64-bit Data Race: 800 MT/s
Heartbeat CPU 0 instructions: 10000000 cycles: 3018285 heartbeat IPC: 3.313 cumulative IPC: 3.313 (Simulation time: 00 hr 00 min 32 sec)
Heartbeat CPU 0 instructions: 20000000 cycles: 5880381 heartbeat IPC: 3.494 cumulative IPC: 3.401 (Simulation time: 00 hr 01 min 05 sec)
Warmup finished CPU 0 instructions: 25000002 cycles: 7239510 cumulative IPC: 3.453 (Simulation time: 00 hr 01 min 23 sec)
Warmup complete CPU 0 instructions: 25000002 cycles: 7239510 cumulative IPC: 3.453 (Simulation time: 00 hr 01 min 23 sec)
Heartbeat CPU 0 instructions: 30000000 cycles: 24973064 heartbeat IPC: 0.5238 cumulative IPC: 0.282 (Simulation time: 00 hr 03 min 14 sec)
Heartbeat CPU 0 instructions: 40000002 cycles: 48100345 heartbeat IPC: 0.4324 cumulative IPC: 0.3671 (Simulation time: 00 hr 05 min 39 sec)
Heartbeat CPU 0 instructions: 50000000 cycles: 73028602 heartbeat IPC: 0.4012 cumulative IPC: 0.38 (Simulation time: 00 hr 08 min 00 sec)
Simulation finished CPU 0 instructions: 25000002 cycles: 65789094 cumulative IPC: 0.38 (Simulation time: 00 hr 08 min 00 sec)
Simulation complete CPU 0 instructions: 25000002 cycles: 65789094 cumulative IPC: 0.38 (Simulation time: 00 hr 08 min 00 sec)

ChampSim completed all CPUs

=== Simulation ===
CPU 0 runs ./traces/605.mcf_s-472B.champsimtrace.xz
Region of Interest Statistics

CPU 0 cumulative IPC: 0.38 instructions: 25000002 cycles: 65789094
CPU 0 Branch Prediction Accuracy: 97.33% MPKI: 2.992 Average ROB Occupancy at Mispredict: 77.25
Branch type MPKI
BRANCH_DIRECT_JUMP: 0
BRANCH_INDIRECT: 0
BRANCH_CONDITIONAL: 2.99
BRANCH_DIRECT_CALL: 0
BRANCH_INDIRECT_CALL: 0
BRANCH_RETURN: 0

LLC TOTAL        ACCESS:    1900824 HIT:     566454 MISS:    1334370
LLC LOAD         ACCESS:     966910 HIT:     302893 MISS:     664017
LLC RFO          ACCESS:      54761 HIT:         31 MISS:      54730
LLC PREFETCH     ACCESS:     745847 HIT:     235991 MISS:     509856
LLC WRITE        ACCESS:     130108 HIT:      27136 MISS:     102972
LLC TRANSLATION  ACCESS:       3198 HIT:        403 MISS:       2795
LLC PREFETCH REQUESTED:          0 ISSUED:          0 USEFUL:          0 USELESS:          0
LLC AVERAGE MISS LATENCY: 635.6 cycles
cpu0_DTLB TOTAL        ACCESS:    7558660 HIT:    7385087 MISS:     173573
cpu0_DTLB LOAD         ACCESS:    7558660 HIT:    7385087 MISS:     173573
cpu0_DTLB RFO          ACCESS:          0 HIT:          0 MISS:          0
cpu0_DTLB PREFETCH     ACCESS:          0 HIT:          0 MISS:          0
cpu0_DTLB WRITE        ACCESS:          0 HIT:          0 MISS:          0
cpu0_DTLB TRANSLATION  ACCESS:          0 HIT:          0 MISS:          0
cpu0_DTLB PREFETCH REQUESTED:          0 ISSUED:          0 USEFUL:          0 USELESS:          0
cpu0_DTLB AVERAGE MISS LATENCY: 28.66 cycles
cpu0_ITLB TOTAL        ACCESS:          0 HIT:          0 MISS:          0
cpu0_ITLB LOAD         ACCESS:          0 HIT:          0 MISS:          0
cpu0_ITLB RFO          ACCESS:          0 HIT:          0 MISS:          0
cpu0_ITLB PREFETCH     ACCESS:          0 HIT:          0 MISS:          0
cpu0_ITLB WRITE        ACCESS:          0 HIT:          0 MISS:          0
cpu0_ITLB TRANSLATION  ACCESS:          0 HIT:          0 MISS:          0
cpu0_ITLB PREFETCH REQUESTED:          0 ISSUED:          0 USEFUL:          0 USELESS:          0
cpu0_ITLB AVERAGE MISS LATENCY: -nan cycles
cpu0_L1D TOTAL        ACCESS:   12482676 HIT:   10781470 MISS:    1701206
cpu0_L1D LOAD         ACCESS:    4775520 HIT:    3584156 MISS:    1191364
cpu0_L1D RFO          ACCESS:          0 HIT:          0 MISS:          0
cpu0_L1D PREFETCH     ACCESS:    1520548 HIT:    1297020 MISS:     223528
cpu0_L1D WRITE        ACCESS:    6155635 HIT:    5880999 MISS:     274636
cpu0_L1D TRANSLATION  ACCESS:      30973 HIT:      19295 MISS:      11678
cpu0_L1D PREFETCH REQUESTED:   36690763 ISSUED:    1520548 USEFUL:      12030 USELESS:     106355
cpu0_L1D AVERAGE MISS LATENCY: 420.5 cycles
cpu0_L1I TOTAL        ACCESS:          0 HIT:          0 MISS:          0
cpu0_L1I LOAD         ACCESS:          0 HIT:          0 MISS:          0
cpu0_L1I RFO          ACCESS:          0 HIT:          0 MISS:          0
cpu0_L1I PREFETCH     ACCESS:          0 HIT:          0 MISS:          0
cpu0_L1I WRITE        ACCESS:          0 HIT:          0 MISS:          0
cpu0_L1I TRANSLATION  ACCESS:          0 HIT:          0 MISS:          0
cpu0_L1I PREFETCH REQUESTED:          0 ISSUED:          0 USEFUL:          0 USELESS:          0
cpu0_L1I AVERAGE MISS LATENCY: -nan cycles
cpu0_L2C TOTAL        ACCESS:    2215214 HIT:     357594 MISS:    1857620
cpu0_L2C LOAD         ACCESS:    1115575 HIT:     110709 MISS:    1004866
cpu0_L2C RFO          ACCESS:      58820 HIT:       4059 MISS:      54761
cpu0_L2C PREFETCH     ACCESS:     869936 HIT:      76064 MISS:     793872
cpu0_L2C WRITE        ACCESS:     159215 HIT:     158292 MISS:        923
cpu0_L2C TRANSLATION  ACCESS:      11668 HIT:       8470 MISS:       3198
cpu0_L2C PREFETCH REQUESTED:     751679 ISSUED:     751566 USEFUL:     128364 USELESS:      27812
cpu0_L2C AVERAGE MISS LATENCY: 400.3 cycles
cpu0_STLB TOTAL        ACCESS:      59516 HIT:      28571 MISS:      30945
cpu0_STLB LOAD         ACCESS:      59516 HIT:      28571 MISS:      30945
cpu0_STLB RFO          ACCESS:          0 HIT:          0 MISS:          0
cpu0_STLB PREFETCH     ACCESS:          0 HIT:          0 MISS:          0
cpu0_STLB WRITE        ACCESS:          0 HIT:          0 MISS:          0
cpu0_STLB TRANSLATION  ACCESS:          0 HIT:          0 MISS:          0
cpu0_STLB PREFETCH REQUESTED:          0 ISSUED:          0 USEFUL:          0 USELESS:          0
cpu0_STLB AVERAGE MISS LATENCY: 291 cycles

DRAM Statistics

Channel 0 RQ ROW_BUFFER_HIT:     648868
  ROW_BUFFER_MISS:     330660
 AVG DBUS CONGESTED CYCLE: 3.922
WQ ROW_BUFFER_HIT: Channel 0 
  ROW_BUFFER_MISS:      15821
  FULL:     115342
