WARNING: physical memory size is smaller than virtual memory size.

*** ChampSim Multicore Out-of-Order Simulator ***
Warmup Instructions: 25000000
Simulation Instructions: 25000000
Number of CPUs: 1
Page size: 4096

Off-chip DRAM Size: 4 GiB Channels: 1 Width: 64-bit Data Race: 800 MT/s
Heartbeat CPU 0 instructions: 10000002 cycles: 2699917 heartbeat IPC: 3.704 cumulative IPC: 3.704 (Simulation time: 00 hr 00 min 35 sec)
Heartbeat CPU 0 instructions: 20000001 cycles: 5397845 heartbeat IPC: 3.707 cumulative IPC: 3.705 (Simulation time: 00 hr 01 min 11 sec)
Warmup finished CPU 0 instructions: 25000001 cycles: 6746614 cumulative IPC: 3.706 (Simulation time: 00 hr 01 min 30 sec)
Warmup complete CPU 0 instructions: 25000001 cycles: 6746614 cumulative IPC: 3.706 (Simulation time: 00 hr 01 min 30 sec)
Heartbeat CPU 0 instructions: 30000001 cycles: 10352847 heartbeat IPC: 2.018 cumulative IPC: 1.386 (Simulation time: 00 hr 02 min 04 sec)
Heartbeat CPU 0 instructions: 40000000 cycles: 17427016 heartbeat IPC: 1.414 cumulative IPC: 1.404 (Simulation time: 00 hr 03 min 11 sec)
Heartbeat CPU 0 instructions: 50000001 cycles: 24462499 heartbeat IPC: 1.421 cumulative IPC: 1.411 (Simulation time: 00 hr 04 min 19 sec)
Simulation finished CPU 0 instructions: 25000000 cycles: 17715886 cumulative IPC: 1.411 (Simulation time: 00 hr 04 min 19 sec)
Simulation complete CPU 0 instructions: 25000000 cycles: 17715886 cumulative IPC: 1.411 (Simulation time: 00 hr 04 min 19 sec)

ChampSim completed all CPUs

=== Simulation ===
CPU 0 runs ./traces/607.cactuBSSN_s-2421B.champsimtrace.xz
Region of Interest Statistics

CPU 0 cumulative IPC: 1.411 instructions: 25000000 cycles: 17715886
CPU 0 Branch Prediction Accuracy: 91.83% MPKI: 0.728 Average ROB Occupancy at Mispredict: 297.5
Branch type MPKI
BRANCH_DIRECT_JUMP: 0
BRANCH_INDIRECT: 0
BRANCH_CONDITIONAL: 0.365
BRANCH_DIRECT_CALL: 0
BRANCH_INDIRECT_CALL: 0
BRANCH_RETURN: 0.363

LLC TOTAL        ACCESS:     258030 HIT:      66233 MISS:     191797
LLC LOAD         ACCESS:     101105 HIT:      28009 MISS:      73096
LLC RFO          ACCESS:      19796 HIT:       5026 MISS:      14770
LLC PREFETCH     ACCESS:     115616 HIT:      23930 MISS:      91686
LLC WRITE        ACCESS:      20017 HIT:       9195 MISS:      10822
LLC TRANSLATION  ACCESS:       1496 HIT:         73 MISS:       1423
LLC PREFETCH REQUESTED:          0 ISSUED:          0 USEFUL:          0 USELESS:          0
LLC AVERAGE MISS LATENCY: 899.9 cycles
cpu0_DTLB TOTAL        ACCESS:    6200300 HIT:    5077370 MISS:    1122930
cpu0_DTLB LOAD         ACCESS:    6200300 HIT:    5077370 MISS:    1122930
cpu0_DTLB RFO          ACCESS:          0 HIT:          0 MISS:          0
cpu0_DTLB PREFETCH     ACCESS:          0 HIT:          0 MISS:          0
cpu0_DTLB WRITE        ACCESS:          0 HIT:          0 MISS:          0
cpu0_DTLB TRANSLATION  ACCESS:          0 HIT:          0 MISS:          0
cpu0_DTLB PREFETCH REQUESTED:          0 ISSUED:          0 USEFUL:          0 USELESS:          0
cpu0_DTLB AVERAGE MISS LATENCY: 7.577 cycles
cpu0_ITLB TOTAL        ACCESS:    3076471 HIT:    3076471 MISS:          0
cpu0_ITLB LOAD         ACCESS:    3076471 HIT:    3076471 MISS:          0
cpu0_ITLB RFO          ACCESS:          0 HIT:          0 MISS:          0
cpu0_ITLB PREFETCH     ACCESS:          0 HIT:          0 MISS:          0
cpu0_ITLB WRITE        ACCESS:          0 HIT:          0 MISS:          0
cpu0_ITLB TRANSLATION  ACCESS:          0 HIT:          0 MISS:          0
cpu0_ITLB PREFETCH REQUESTED:          0 ISSUED:          0 USEFUL:          0 USELESS:          0
cpu0_ITLB AVERAGE MISS LATENCY: -nan cycles
cpu0_L1D TOTAL        ACCESS:    9405877 HIT:    7066242 MISS:    2339635
cpu0_L1D LOAD         ACCESS:    6295555 HIT:    4373230 MISS:    1922325
cpu0_L1D RFO          ACCESS:          0 HIT:          0 MISS:          0
cpu0_L1D PREFETCH     ACCESS:    1091266 HIT:     879766 MISS:     211500
cpu0_L1D WRITE        ACCESS:    2017513 HIT:    1813217 MISS:     204296
cpu0_L1D TRANSLATION  ACCESS:       1543 HIT:         29 MISS:       1514
cpu0_L1D PREFETCH REQUESTED:   10371276 ISSUED:    1091268 USEFUL:      16646 USELESS:     136149
cpu0_L1D AVERAGE MISS LATENCY: 72.31 cycles
cpu0_L1I TOTAL        ACCESS:    4167551 HIT:    3079843 MISS:    1087708
cpu0_L1I LOAD         ACCESS:    4167551 HIT:    3079843 MISS:    1087708
cpu0_L1I RFO          ACCESS:          0 HIT:          0 MISS:          0
cpu0_L1I PREFETCH     ACCESS:          0 HIT:          0 MISS:          0
cpu0_L1I WRITE        ACCESS:          0 HIT:          0 MISS:          0
cpu0_L1I TRANSLATION  ACCESS:          0 HIT:          0 MISS:          0
cpu0_L1I PREFETCH REQUESTED:          0 ISSUED:          0 USEFUL:          0 USELESS:          0
cpu0_L1I AVERAGE MISS LATENCY: 6.668 cycles
cpu0_L2C TOTAL        ACCESS:    3169721 HIT:    2930899 MISS:     238822
cpu0_L2C LOAD         ACCESS:    2468555 HIT:    2367439 MISS:     101116
cpu0_L2C RFO          ACCESS:     168779 HIT:     148832 MISS:      19947
cpu0_L2C PREFETCH     ACCESS:     338124 HIT:     221899 MISS:     116225
cpu0_L2C WRITE        ACCESS:     192749 HIT:     192711 MISS:         38
cpu0_L2C TRANSLATION  ACCESS:       1514 HIT:         18 MISS:       1496
cpu0_L2C PREFETCH REQUESTED:     206987 ISSUED:     185313 USEFUL:      45460 USELESS:         71
cpu0_L2C AVERAGE MISS LATENCY: 717.6 cycles
cpu0_STLB TOTAL        ACCESS:     961409 HIT:     960391 MISS:       1018
cpu0_STLB LOAD         ACCESS:     961409 HIT:     960391 MISS:       1018
cpu0_STLB RFO          ACCESS:          0 HIT:          0 MISS:          0
cpu0_STLB PREFETCH     ACCESS:          0 HIT:          0 MISS:          0
cpu0_STLB WRITE        ACCESS:          0 HIT:          0 MISS:          0
cpu0_STLB TRANSLATION  ACCESS:          0 HIT:          0 MISS:          0
cpu0_STLB PREFETCH REQUESTED:          0 ISSUED:          0 USEFUL:          0 USELESS:          0
cpu0_STLB AVERAGE MISS LATENCY: 1486 cycles

DRAM Statistics

Channel 0 RQ ROW_BUFFER_HIT:      51620
  ROW_BUFFER_MISS:     129247
 AVG DBUS CONGESTED CYCLE: 3.897
WQ ROW_BUFFER_HIT: Channel 0 
  ROW_BUFFER_MISS:       2143
  FULL:      13343
