WARNING: physical memory size is smaller than virtual memory size.

*** ChampSim Multicore Out-of-Order Simulator ***
Warmup Instructions: 25000000
Simulation Instructions: 25000000
Number of CPUs: 1
Page size: 4096

Off-chip DRAM Size: 4 GiB Channels: 1 Width: 64-bit Data Race: 800 MT/s
Heartbeat CPU 0 instructions: 10000001 cycles: 2704202 heartbeat IPC: 3.698 cumulative IPC: 3.698 (Simulation time: 00 hr 00 min 41 sec)
Heartbeat CPU 0 instructions: 20000000 cycles: 5407721 heartbeat IPC: 3.699 cumulative IPC: 3.698 (Simulation time: 00 hr 01 min 22 sec)
Warmup finished CPU 0 instructions: 25000002 cycles: 6760250 cumulative IPC: 3.698 (Simulation time: 00 hr 01 min 43 sec)
Warmup complete CPU 0 instructions: 25000002 cycles: 6760250 cumulative IPC: 3.698 (Simulation time: 00 hr 01 min 43 sec)
Heartbeat CPU 0 instructions: 30000003 cycles: 10323954 heartbeat IPC: 2.034 cumulative IPC: 1.403 (Simulation time: 00 hr 02 min 23 sec)
Heartbeat CPU 0 instructions: 40000000 cycles: 17242720 heartbeat IPC: 1.445 cumulative IPC: 1.431 (Simulation time: 00 hr 03 min 41 sec)
Heartbeat CPU 0 instructions: 50000003 cycles: 24438947 heartbeat IPC: 1.39 cumulative IPC: 1.414 (Simulation time: 00 hr 05 min 02 sec)
Simulation finished CPU 0 instructions: 25000001 cycles: 17678698 cumulative IPC: 1.414 (Simulation time: 00 hr 05 min 02 sec)
Simulation complete CPU 0 instructions: 25000001 cycles: 17678698 cumulative IPC: 1.414 (Simulation time: 00 hr 05 min 02 sec)

ChampSim completed all CPUs

=== Simulation ===
CPU 0 runs ./traces/607.cactuBSSN_s-3477B.champsimtrace.xz
Region of Interest Statistics

CPU 0 cumulative IPC: 1.414 instructions: 25000001 cycles: 17678698
CPU 0 Branch Prediction Accuracy: 91.83% MPKI: 0.7242 Average ROB Occupancy at Mispredict: 291.4
Branch type MPKI
BRANCH_DIRECT_JUMP: 0
BRANCH_INDIRECT: 4e-05
BRANCH_CONDITIONAL: 0.363
BRANCH_DIRECT_CALL: 0
BRANCH_INDIRECT_CALL: 0
BRANCH_RETURN: 0.362

LLC TOTAL        ACCESS:     262015 HIT:      68179 MISS:     193836
LLC LOAD         ACCESS:     104889 HIT:      31452 MISS:      73437
LLC RFO          ACCESS:      19355 HIT:       4651 MISS:      14704
LLC PREFETCH     ACCESS:     116450 HIT:      23720 MISS:      92730
LLC WRITE        ACCESS:      19599 HIT:       8207 MISS:      11392
LLC TRANSLATION  ACCESS:       1722 HIT:        149 MISS:       1573
LLC PREFETCH REQUESTED:          0 ISSUED:          0 USEFUL:          0 USELESS:          0
LLC AVERAGE MISS LATENCY: 891.8 cycles
cpu0_DTLB TOTAL        ACCESS:    6365530 HIT:    5269708 MISS:    1095822
cpu0_DTLB LOAD         ACCESS:    6365530 HIT:    5269708 MISS:    1095822
cpu0_DTLB RFO          ACCESS:          0 HIT:          0 MISS:          0
cpu0_DTLB PREFETCH     ACCESS:          0 HIT:          0 MISS:          0
cpu0_DTLB WRITE        ACCESS:          0 HIT:          0 MISS:          0
cpu0_DTLB TRANSLATION  ACCESS:          0 HIT:          0 MISS:          0
cpu0_DTLB PREFETCH REQUESTED:          0 ISSUED:          0 USEFUL:          0 USELESS:          0
cpu0_DTLB AVERAGE MISS LATENCY: 7.922 cycles
cpu0_ITLB TOTAL        ACCESS:    3086942 HIT:    3086942 MISS:          0
cpu0_ITLB LOAD         ACCESS:    3086942 HIT:    3086942 MISS:          0
cpu0_ITLB RFO          ACCESS:          0 HIT:          0 MISS:          0
cpu0_ITLB PREFETCH     ACCESS:          0 HIT:          0 MISS:          0
cpu0_ITLB WRITE        ACCESS:          0 HIT:          0 MISS:          0
cpu0_ITLB TRANSLATION  ACCESS:          0 HIT:          0 MISS:          0
cpu0_ITLB PREFETCH REQUESTED:          0 ISSUED:          0 USEFUL:          0 USELESS:          0
cpu0_ITLB AVERAGE MISS LATENCY: -nan cycles
cpu0_L1D TOTAL        ACCESS:    9474821 HIT:    7158592 MISS:    2316229
cpu0_L1D LOAD         ACCESS:    6314144 HIT:    4410404 MISS:    1903740
cpu0_L1D RFO          ACCESS:          0 HIT:          0 MISS:          0
cpu0_L1D PREFETCH     ACCESS:    1164539 HIT:     952061 MISS:     212478
cpu0_L1D WRITE        ACCESS:    1994369 HIT:    1796111 MISS:     198258
cpu0_L1D TRANSLATION  ACCESS:       1769 HIT:         16 MISS:       1753
cpu0_L1D PREFETCH REQUESTED:   10344715 ISSUED:    1164535 USEFUL:      17418 USELESS:     137808
cpu0_L1D AVERAGE MISS LATENCY: 72.95 cycles
cpu0_L1I TOTAL        ACCESS:    4206205 HIT:    2970207 MISS:    1235998
cpu0_L1I LOAD         ACCESS:    4206205 HIT:    2970207 MISS:    1235998
cpu0_L1I RFO          ACCESS:          0 HIT:          0 MISS:          0
cpu0_L1I PREFETCH     ACCESS:          0 HIT:          0 MISS:          0
cpu0_L1I WRITE        ACCESS:          0 HIT:          0 MISS:          0
cpu0_L1I TRANSLATION  ACCESS:          0 HIT:          0 MISS:          0
cpu0_L1I PREFETCH REQUESTED:          0 ISSUED:          0 USEFUL:          0 USELESS:          0
cpu0_L1I AVERAGE MISS LATENCY: 6.421 cycles
cpu0_L2C TOTAL        ACCESS:    3234379 HIT:    2991246 MISS:     243133
cpu0_L2C LOAD         ACCESS:    2528985 HIT:    2424083 MISS:     104902
cpu0_L2C RFO          ACCESS:     170377 HIT:     150909 MISS:      19468
cpu0_L2C PREFETCH     ACCESS:     339591 HIT:     222613 MISS:     116978
cpu0_L2C WRITE        ACCESS:     193676 HIT:     193613 MISS:         63
cpu0_L2C TRANSLATION  ACCESS:       1750 HIT:         28 MISS:       1722
cpu0_L2C PREFETCH REQUESTED:     199178 ISSUED:     184332 USEFUL:      45114 USELESS:        305
cpu0_L2C AVERAGE MISS LATENCY: 705.3 cycles
cpu0_STLB TOTAL        ACCESS:     949378 HIT:     948173 MISS:       1205
cpu0_STLB LOAD         ACCESS:     949378 HIT:     948173 MISS:       1205
cpu0_STLB RFO          ACCESS:          0 HIT:          0 MISS:          0
cpu0_STLB PREFETCH     ACCESS:          0 HIT:          0 MISS:          0
cpu0_STLB WRITE        ACCESS:          0 HIT:          0 MISS:          0
cpu0_STLB TRANSLATION  ACCESS:          0 HIT:          0 MISS:          0
cpu0_STLB PREFETCH REQUESTED:          0 ISSUED:          0 USEFUL:          0 USELESS:          0
cpu0_STLB AVERAGE MISS LATENCY: 1481 cycles

DRAM Statistics

Channel 0 RQ ROW_BUFFER_HIT:      54730
  ROW_BUFFER_MISS:     127559
 AVG DBUS CONGESTED CYCLE: 3.892
WQ ROW_BUFFER_HIT: Channel 0 
  ROW_BUFFER_MISS:       2202
  FULL:      13171
