WARNING: physical memory size is smaller than virtual memory size.

*** ChampSim Multicore Out-of-Order Simulator ***
Warmup Instructions: 25000000
Simulation Instructions: 25000000
Number of CPUs: 1
Page size: 4096

Off-chip DRAM Size: 4 GiB Channels: 1 Width: 64-bit Data Race: 800 MT/s
Heartbeat CPU 0 instructions: 10000000 cycles: 2699826 heartbeat IPC: 3.704 cumulative IPC: 3.704 (Simulation time: 00 hr 00 min 39 sec)
Heartbeat CPU 0 instructions: 20000001 cycles: 5399561 heartbeat IPC: 3.704 cumulative IPC: 3.704 (Simulation time: 00 hr 01 min 20 sec)
Warmup finished CPU 0 instructions: 25000000 cycles: 6749225 cumulative IPC: 3.704 (Simulation time: 00 hr 01 min 40 sec)
Warmup complete CPU 0 instructions: 25000000 cycles: 6749225 cumulative IPC: 3.704 (Simulation time: 00 hr 01 min 40 sec)
Heartbeat CPU 0 instructions: 30000001 cycles: 10339982 heartbeat IPC: 2.024 cumulative IPC: 1.392 (Simulation time: 00 hr 02 min 19 sec)
Heartbeat CPU 0 instructions: 40000003 cycles: 17550368 heartbeat IPC: 1.387 cumulative IPC: 1.389 (Simulation time: 00 hr 03 min 40 sec)
Heartbeat CPU 0 instructions: 50000002 cycles: 24600722 heartbeat IPC: 1.418 cumulative IPC: 1.4 (Simulation time: 00 hr 04 min 57 sec)
Simulation finished CPU 0 instructions: 25000002 cycles: 17851498 cumulative IPC: 1.4 (Simulation time: 00 hr 04 min 57 sec)
Simulation complete CPU 0 instructions: 25000002 cycles: 17851498 cumulative IPC: 1.4 (Simulation time: 00 hr 04 min 57 sec)

ChampSim completed all CPUs

=== Simulation ===
CPU 0 runs ./traces/607.cactuBSSN_s-4004B.champsimtrace.xz
Region of Interest Statistics

CPU 0 cumulative IPC: 1.4 instructions: 25000002 cycles: 17851498
CPU 0 Branch Prediction Accuracy: 91.83% MPKI: 0.728 Average ROB Occupancy at Mispredict: 296.5
Branch type MPKI
BRANCH_DIRECT_JUMP: 0
BRANCH_INDIRECT: 0
BRANCH_CONDITIONAL: 0.365
BRANCH_DIRECT_CALL: 0
BRANCH_INDIRECT_CALL: 0
BRANCH_RETURN: 0.363

LLC TOTAL        ACCESS:     261441 HIT:      68971 MISS:     192470
LLC LOAD         ACCESS:     106068 HIT:      32873 MISS:      73195
LLC RFO          ACCESS:      18653 HIT:       3930 MISS:      14723
LLC PREFETCH     ACCESS:     116297 HIT:      24673 MISS:      91624
LLC WRITE        ACCESS:      18928 HIT:       7324 MISS:      11604
LLC TRANSLATION  ACCESS:       1495 HIT:        171 MISS:       1324
LLC PREFETCH REQUESTED:          0 ISSUED:          0 USEFUL:          0 USELESS:          0
LLC AVERAGE MISS LATENCY: 886.4 cycles
cpu0_DTLB TOTAL        ACCESS:    6242462 HIT:    5113195 MISS:    1129267
cpu0_DTLB LOAD         ACCESS:    6242462 HIT:    5113195 MISS:    1129267
cpu0_DTLB RFO          ACCESS:          0 HIT:          0 MISS:          0
cpu0_DTLB PREFETCH     ACCESS:          0 HIT:          0 MISS:          0
cpu0_DTLB WRITE        ACCESS:          0 HIT:          0 MISS:          0
cpu0_DTLB TRANSLATION  ACCESS:          0 HIT:          0 MISS:          0
cpu0_DTLB PREFETCH REQUESTED:          0 ISSUED:          0 USEFUL:          0 USELESS:          0
cpu0_DTLB AVERAGE MISS LATENCY: 7.497 cycles
cpu0_ITLB TOTAL        ACCESS:    3078698 HIT:    3078698 MISS:          0
cpu0_ITLB LOAD         ACCESS:    3078698 HIT:    3078698 MISS:          0
cpu0_ITLB RFO          ACCESS:          0 HIT:          0 MISS:          0
cpu0_ITLB PREFETCH     ACCESS:          0 HIT:          0 MISS:          0
cpu0_ITLB WRITE        ACCESS:          0 HIT:          0 MISS:          0
cpu0_ITLB TRANSLATION  ACCESS:          0 HIT:          0 MISS:          0
cpu0_ITLB PREFETCH REQUESTED:          0 ISSUED:          0 USEFUL:          0 USELESS:          0
cpu0_ITLB AVERAGE MISS LATENCY: -nan cycles
cpu0_L1D TOTAL        ACCESS:    9456136 HIT:    7114614 MISS:    2341522
cpu0_L1D LOAD         ACCESS:    6325031 HIT:    4394390 MISS:    1930641
cpu0_L1D RFO          ACCESS:          0 HIT:          0 MISS:          0
cpu0_L1D PREFETCH     ACCESS:    1112180 HIT:     896582 MISS:     215598
cpu0_L1D WRITE        ACCESS:    2017394 HIT:    1823627 MISS:     193767
cpu0_L1D TRANSLATION  ACCESS:       1531 HIT:         15 MISS:       1516
cpu0_L1D PREFETCH REQUESTED:   10234446 ISSUED:    1112179 USEFUL:      18019 USELESS:     138034
cpu0_L1D AVERAGE MISS LATENCY: 72.02 cycles
cpu0_L1I TOTAL        ACCESS:    4166824 HIT:    3077990 MISS:    1088834
cpu0_L1I LOAD         ACCESS:    4166824 HIT:    3077990 MISS:    1088834
cpu0_L1I RFO          ACCESS:          0 HIT:          0 MISS:          0
cpu0_L1I PREFETCH     ACCESS:          0 HIT:          0 MISS:          0
cpu0_L1I WRITE        ACCESS:          0 HIT:          0 MISS:          0
cpu0_L1I TRANSLATION  ACCESS:          0 HIT:          0 MISS:          0
cpu0_L1I PREFETCH REQUESTED:          0 ISSUED:          0 USEFUL:          0 USELESS:          0
cpu0_L1I AVERAGE MISS LATENCY: 6.665 cycles
cpu0_L2C TOTAL        ACCESS:    3178675 HIT:    2935355 MISS:     243320
cpu0_L2C LOAD         ACCESS:    2473423 HIT:    2367350 MISS:     106073
cpu0_L2C RFO          ACCESS:     168685 HIT:     149943 MISS:      18742
cpu0_L2C PREFETCH     ACCESS:     340698 HIT:     223798 MISS:     116900
cpu0_L2C WRITE        ACCESS:     194353 HIT:     194243 MISS:        110
cpu0_L2C TRANSLATION  ACCESS:       1516 HIT:         21 MISS:       1495
cpu0_L2C PREFETCH REQUESTED:     197294 ISSUED:     184628 USEFUL:      45640 USELESS:        166
cpu0_L2C AVERAGE MISS LATENCY: 700.1 cycles
cpu0_STLB TOTAL        ACCESS:     968452 HIT:     967434 MISS:       1018
cpu0_STLB LOAD         ACCESS:     968452 HIT:     967434 MISS:       1018
cpu0_STLB RFO          ACCESS:          0 HIT:          0 MISS:          0
cpu0_STLB PREFETCH     ACCESS:          0 HIT:          0 MISS:          0
cpu0_STLB WRITE        ACCESS:          0 HIT:          0 MISS:          0
cpu0_STLB TRANSLATION  ACCESS:          0 HIT:          0 MISS:          0
cpu0_STLB PREFETCH REQUESTED:          0 ISSUED:          0 USEFUL:          0 USELESS:          0
cpu0_STLB AVERAGE MISS LATENCY: 1375 cycles

DRAM Statistics

Channel 0 RQ ROW_BUFFER_HIT:      50748
  ROW_BUFFER_MISS:     130037
 AVG DBUS CONGESTED CYCLE: 3.895
WQ ROW_BUFFER_HIT: Channel 0 
  ROW_BUFFER_MISS:       2248
  FULL:      13601
