WARNING: physical memory size is smaller than virtual memory size.

*** ChampSim Multicore Out-of-Order Simulator ***
Warmup Instructions: 25000000
Simulation Instructions: 25000000
Number of CPUs: 1
Page size: 4096

Off-chip DRAM Size: 4 GiB Channels: 1 Width: 64-bit Data Race: 800 MT/s
Heartbeat CPU 0 instructions: 10000001 cycles: 2956679 heartbeat IPC: 3.382 cumulative IPC: 3.382 (Simulation time: 00 hr 00 min 34 sec)
Heartbeat CPU 0 instructions: 20000001 cycles: 5912621 heartbeat IPC: 3.383 cumulative IPC: 3.383 (Simulation time: 00 hr 01 min 08 sec)
Warmup finished CPU 0 instructions: 25000003 cycles: 7390860 cumulative IPC: 3.383 (Simulation time: 00 hr 01 min 24 sec)
Warmup complete CPU 0 instructions: 25000003 cycles: 7390860 cumulative IPC: 3.383 (Simulation time: 00 hr 01 min 24 sec)
Heartbeat CPU 0 instructions: 30000001 cycles: 48494437 heartbeat IPC: 0.2348 cumulative IPC: 0.1216 (Simulation time: 00 hr 05 min 23 sec)
Heartbeat CPU 0 instructions: 40000002 cycles: 131427154 heartbeat IPC: 0.1206 cumulative IPC: 0.1209 (Simulation time: 00 hr 13 min 37 sec)
Heartbeat CPU 0 instructions: 50000001 cycles: 214233500 heartbeat IPC: 0.1208 cumulative IPC: 0.1209 (Simulation time: 00 hr 21 min 09 sec)
Simulation finished CPU 0 instructions: 25000002 cycles: 206842642 cumulative IPC: 0.1209 (Simulation time: 00 hr 21 min 09 sec)
Simulation complete CPU 0 instructions: 25000002 cycles: 206842642 cumulative IPC: 0.1209 (Simulation time: 00 hr 21 min 09 sec)

ChampSim completed all CPUs

=== Simulation ===
CPU 0 runs ./traces/619.lbm_s-4268B.champsimtrace.xz
Region of Interest Statistics

CPU 0 cumulative IPC: 0.1209 instructions: 25000002 cycles: 206842642
CPU 0 Branch Prediction Accuracy: 95.11% MPKI: 0.871 Average ROB Occupancy at Mispredict: 295
Branch type MPKI
BRANCH_DIRECT_JUMP: 0
BRANCH_INDIRECT: 0
BRANCH_CONDITIONAL: 0.871
BRANCH_DIRECT_CALL: 0
BRANCH_INDIRECT_CALL: 0
BRANCH_RETURN: 0

LLC TOTAL        ACCESS:    3433473 HIT:    1191562 MISS:    2241911
LLC LOAD         ACCESS:     208518 HIT:      15069 MISS:     193449
LLC RFO          ACCESS:    1544705 HIT:     585999 MISS:     958706
LLC PREFETCH     ACCESS:     134337 HIT:      13356 MISS:     120981
LLC WRITE        ACCESS:    1545378 HIT:     577116 MISS:     968262
LLC TRANSLATION  ACCESS:        535 HIT:         22 MISS:        513
LLC PREFETCH REQUESTED:          0 ISSUED:          0 USEFUL:          0 USELESS:          0
LLC AVERAGE MISS LATENCY: 1331 cycles
cpu0_DTLB TOTAL        ACCESS:    5103019 HIT:    5047226 MISS:      55793
cpu0_DTLB LOAD         ACCESS:    5103019 HIT:    5047226 MISS:      55793
cpu0_DTLB RFO          ACCESS:          0 HIT:          0 MISS:          0
cpu0_DTLB PREFETCH     ACCESS:          0 HIT:          0 MISS:          0
cpu0_DTLB WRITE        ACCESS:          0 HIT:          0 MISS:          0
cpu0_DTLB TRANSLATION  ACCESS:          0 HIT:          0 MISS:          0
cpu0_DTLB PREFETCH REQUESTED:          0 ISSUED:          0 USEFUL:          0 USELESS:          0
cpu0_DTLB AVERAGE MISS LATENCY: 159.5 cycles
cpu0_ITLB TOTAL        ACCESS:          0 HIT:          0 MISS:          0
cpu0_ITLB LOAD         ACCESS:          0 HIT:          0 MISS:          0
cpu0_ITLB RFO          ACCESS:          0 HIT:          0 MISS:          0
cpu0_ITLB PREFETCH     ACCESS:          0 HIT:          0 MISS:          0
cpu0_ITLB WRITE        ACCESS:          0 HIT:          0 MISS:          0
cpu0_ITLB TRANSLATION  ACCESS:          0 HIT:          0 MISS:          0
cpu0_ITLB PREFETCH REQUESTED:          0 ISSUED:          0 USEFUL:          0 USELESS:          0
cpu0_ITLB AVERAGE MISS LATENCY: -nan cycles
cpu0_L1D TOTAL        ACCESS:    7958023 HIT:    4897514 MISS:    3060509
cpu0_L1D LOAD         ACCESS:    1689876 HIT:    1143859 MISS:     546017
cpu0_L1D RFO          ACCESS:          0 HIT:          0 MISS:          0
cpu0_L1D PREFETCH     ACCESS:    1690159 HIT:     964817 MISS:     725342
cpu0_L1D WRITE        ACCESS:    4559566 HIT:    2788814 MISS:    1770752
cpu0_L1D TRANSLATION  ACCESS:      18422 HIT:         24 MISS:      18398
cpu0_L1D PREFETCH REQUESTED:   21673704 ISSUED:    1690162 USEFUL:      70865 USELESS:       2650
cpu0_L1D AVERAGE MISS LATENCY: 894.8 cycles
cpu0_L1I TOTAL        ACCESS:          0 HIT:          0 MISS:          0
cpu0_L1I LOAD         ACCESS:          0 HIT:          0 MISS:          0
cpu0_L1I RFO          ACCESS:          0 HIT:          0 MISS:          0
cpu0_L1I PREFETCH     ACCESS:          0 HIT:          0 MISS:          0
cpu0_L1I WRITE        ACCESS:          0 HIT:          0 MISS:          0
cpu0_L1I TRANSLATION  ACCESS:          0 HIT:          0 MISS:          0
cpu0_L1I PREFETCH REQUESTED:          0 ISSUED:          0 USEFUL:          0 USELESS:          0
cpu0_L1I AVERAGE MISS LATENCY: -nan cycles
cpu0_L2C TOTAL        ACCESS:    3730664 HIT:    1839654 MISS:    1891010
cpu0_L2C LOAD         ACCESS:     223935 HIT:      14712 MISS:     209223
cpu0_L2C RFO          ACCESS:    1669735 HIT:     125031 MISS:    1544704
cpu0_L2C PREFETCH     ACCESS:     148836 HIT:      12288 MISS:     136548
cpu0_L2C WRITE        ACCESS:    1669760 HIT:    1669760 MISS:          0
cpu0_L2C TRANSLATION  ACCESS:      18398 HIT:      17863 MISS:        535
cpu0_L2C PREFETCH REQUESTED:      75321 ISSUED:      75321 USEFUL:      15523 USELESS:        358
cpu0_L2C AVERAGE MISS LATENCY: 1561 cycles
cpu0_STLB TOTAL        ACCESS:      33922 HIT:      15518 MISS:      18404
cpu0_STLB LOAD         ACCESS:      33922 HIT:      15518 MISS:      18404
cpu0_STLB RFO          ACCESS:          0 HIT:          0 MISS:          0
cpu0_STLB PREFETCH     ACCESS:          0 HIT:          0 MISS:          0
cpu0_STLB WRITE        ACCESS:          0 HIT:          0 MISS:          0
cpu0_STLB TRANSLATION  ACCESS:          0 HIT:          0 MISS:          0
cpu0_STLB PREFETCH REQUESTED:          0 ISSUED:          0 USEFUL:          0 USELESS:          0
cpu0_STLB AVERAGE MISS LATENCY: 598.7 cycles

DRAM Statistics

Channel 0 RQ ROW_BUFFER_HIT:      99054
  ROW_BUFFER_MISS:    1155057
 AVG DBUS CONGESTED CYCLE: 3.986
WQ ROW_BUFFER_HIT: Channel 0 
  ROW_BUFFER_MISS:      37858
  FULL:     938798
