WARNING: physical memory size is smaller than virtual memory size.

*** ChampSim Multicore Out-of-Order Simulator ***
Warmup Instructions: 25000000
Simulation Instructions: 25000000
Number of CPUs: 1
Page size: 4096

Off-chip DRAM Size: 4 GiB Channels: 1 Width: 64-bit Data Race: 800 MT/s
Heartbeat CPU 0 instructions: 10000003 cycles: 2920672 heartbeat IPC: 3.424 cumulative IPC: 3.424 (Simulation time: 00 hr 00 min 32 sec)
Heartbeat CPU 0 instructions: 20000002 cycles: 5829662 heartbeat IPC: 3.438 cumulative IPC: 3.431 (Simulation time: 00 hr 01 min 06 sec)
Warmup finished CPU 0 instructions: 25000000 cycles: 7287747 cumulative IPC: 3.43 (Simulation time: 00 hr 01 min 22 sec)
Warmup complete CPU 0 instructions: 25000000 cycles: 7287747 cumulative IPC: 3.43 (Simulation time: 00 hr 01 min 22 sec)
Heartbeat CPU 0 instructions: 30000000 cycles: 45256562 heartbeat IPC: 0.2536 cumulative IPC: 0.1317 (Simulation time: 00 hr 05 min 03 sec)
Heartbeat CPU 0 instructions: 40000002 cycles: 116470749 heartbeat IPC: 0.1404 cumulative IPC: 0.1374 (Simulation time: 00 hr 12 min 08 sec)
Heartbeat CPU 0 instructions: 50000002 cycles: 184271231 heartbeat IPC: 0.1475 cumulative IPC: 0.1413 (Simulation time: 00 hr 18 min 57 sec)
Simulation finished CPU 0 instructions: 25000002 cycles: 176983485 cumulative IPC: 0.1413 (Simulation time: 00 hr 18 min 57 sec)
Simulation complete CPU 0 instructions: 25000002 cycles: 176983485 cumulative IPC: 0.1413 (Simulation time: 00 hr 18 min 57 sec)

ChampSim completed all CPUs

=== Simulation ===
CPU 0 runs ./traces/619.lbm_s-2676B.champsimtrace.xz
Region of Interest Statistics

CPU 0 cumulative IPC: 0.1413 instructions: 25000002 cycles: 176983485
CPU 0 Branch Prediction Accuracy: 96.12% MPKI: 0.6142 Average ROB Occupancy at Mispredict: 295.2
Branch type MPKI
BRANCH_DIRECT_JUMP: 0
BRANCH_INDIRECT: 0
BRANCH_CONDITIONAL: 0.614
BRANCH_DIRECT_CALL: 0
BRANCH_INDIRECT_CALL: 0
BRANCH_RETURN: 0

LLC TOTAL        ACCESS:    2879026 HIT:     963312 MISS:    1915714
LLC LOAD         ACCESS:     167110 HIT:      10921 MISS:     156189
LLC RFO          ACCESS:    1295346 HIT:     475083 MISS:     820263
LLC PREFETCH     ACCESS:     119105 HIT:       9826 MISS:     109279
LLC WRITE        ACCESS:    1296872 HIT:     467478 MISS:     829394
LLC TRANSLATION  ACCESS:        593 HIT:          4 MISS:        589
LLC PREFETCH REQUESTED:          0 ISSUED:          0 USEFUL:          0 USELESS:          0
LLC AVERAGE MISS LATENCY: 1315 cycles
cpu0_DTLB TOTAL        ACCESS:    4861855 HIT:    4815476 MISS:      46379
cpu0_DTLB LOAD         ACCESS:    4861855 HIT:    4815476 MISS:      46379
cpu0_DTLB RFO          ACCESS:          0 HIT:          0 MISS:          0
cpu0_DTLB PREFETCH     ACCESS:          0 HIT:          0 MISS:          0
cpu0_DTLB WRITE        ACCESS:          0 HIT:          0 MISS:          0
cpu0_DTLB TRANSLATION  ACCESS:          0 HIT:          0 MISS:          0
cpu0_DTLB PREFETCH REQUESTED:          0 ISSUED:          0 USEFUL:          0 USELESS:          0
cpu0_DTLB AVERAGE MISS LATENCY: 158.6 cycles
cpu0_ITLB TOTAL        ACCESS:          0 HIT:          0 MISS:          0
cpu0_ITLB LOAD         ACCESS:          0 HIT:          0 MISS:          0
cpu0_ITLB RFO          ACCESS:          0 HIT:          0 MISS:          0
cpu0_ITLB PREFETCH     ACCESS:          0 HIT:          0 MISS:          0
cpu0_ITLB WRITE        ACCESS:          0 HIT:          0 MISS:          0
cpu0_ITLB TRANSLATION  ACCESS:          0 HIT:          0 MISS:          0
cpu0_ITLB PREFETCH REQUESTED:          0 ISSUED:          0 USEFUL:          0 USELESS:          0
cpu0_ITLB AVERAGE MISS LATENCY: -nan cycles
cpu0_L1D TOTAL        ACCESS:    7720074 HIT:    5031072 MISS:    2689002
cpu0_L1D LOAD         ACCESS:    1686050 HIT:    1203684 MISS:     482366
cpu0_L1D RFO          ACCESS:          0 HIT:          0 MISS:          0
cpu0_L1D PREFETCH     ACCESS:    1690600 HIT:    1001180 MISS:     689420
cpu0_L1D WRITE        ACCESS:    4327767 HIT:    2826190 MISS:    1501577
cpu0_L1D TRANSLATION  ACCESS:      15657 HIT:         18 MISS:      15639
cpu0_L1D PREFETCH REQUESTED:   16399107 ISSUED:    1690603 USEFUL:      65545 USELESS:       2234
cpu0_L1D AVERAGE MISS LATENCY: 860.8 cycles
cpu0_L1I TOTAL        ACCESS:          0 HIT:          0 MISS:          0
cpu0_L1I LOAD         ACCESS:          0 HIT:          0 MISS:          0
cpu0_L1I RFO          ACCESS:          0 HIT:          0 MISS:          0
cpu0_L1I PREFETCH     ACCESS:          0 HIT:          0 MISS:          0
cpu0_L1I WRITE        ACCESS:          0 HIT:          0 MISS:          0
cpu0_L1I TRANSLATION  ACCESS:          0 HIT:          0 MISS:          0
cpu0_L1I PREFETCH REQUESTED:          0 ISSUED:          0 USEFUL:          0 USELESS:          0
cpu0_L1I AVERAGE MISS LATENCY: -nan cycles
cpu0_L2C TOTAL        ACCESS:    3169110 HIT:    1584422 MISS:    1584688
cpu0_L2C LOAD         ACCESS:     184807 HIT:      17058 MISS:     167749
cpu0_L2C RFO          ACCESS:    1415402 HIT:     120056 MISS:    1295346
cpu0_L2C PREFETCH     ACCESS:     137851 HIT:      16851 MISS:     121000
cpu0_L2C WRITE        ACCESS:    1415411 HIT:    1415411 MISS:          0
cpu0_L2C TRANSLATION  ACCESS:      15639 HIT:      15046 MISS:        593
cpu0_L2C PREFETCH REQUESTED:      70071 ISSUED:      70071 USEFUL:      17938 USELESS:        308
cpu0_L2C AVERAGE MISS LATENCY: 1577 cycles
cpu0_STLB TOTAL        ACCESS:      28825 HIT:      13183 MISS:      15642
cpu0_STLB LOAD         ACCESS:      28825 HIT:      13183 MISS:      15642
cpu0_STLB RFO          ACCESS:          0 HIT:          0 MISS:          0
cpu0_STLB PREFETCH     ACCESS:          0 HIT:          0 MISS:          0
cpu0_STLB WRITE        ACCESS:          0 HIT:          0 MISS:          0
cpu0_STLB TRANSLATION  ACCESS:          0 HIT:          0 MISS:          0
cpu0_STLB PREFETCH REQUESTED:          0 ISSUED:          0 USEFUL:          0 USELESS:          0
cpu0_STLB AVERAGE MISS LATENCY: 588.7 cycles

DRAM Statistics

Channel 0 RQ ROW_BUFFER_HIT:      83522
  ROW_BUFFER_MISS:     987259
 AVG DBUS CONGESTED CYCLE: 3.986
WQ ROW_BUFFER_HIT: Channel 0 
  ROW_BUFFER_MISS:      33688
  FULL:     804434
