WARNING: physical memory size is smaller than virtual memory size.

*** ChampSim Multicore Out-of-Order Simulator ***
Warmup Instructions: 25000000
Simulation Instructions: 25000000
Number of CPUs: 1
Page size: 4096

Off-chip DRAM Size: 4 GiB Channels: 1 Width: 64-bit Data Race: 800 MT/s
Heartbeat CPU 0 instructions: 10000000 cycles: 2963377 heartbeat IPC: 3.375 cumulative IPC: 3.375 (Simulation time: 00 hr 00 min 38 sec)
Heartbeat CPU 0 instructions: 20000000 cycles: 5907006 heartbeat IPC: 3.397 cumulative IPC: 3.386 (Simulation time: 00 hr 01 min 16 sec)
Warmup finished CPU 0 instructions: 25000003 cycles: 7392674 cumulative IPC: 3.382 (Simulation time: 00 hr 01 min 36 sec)
Warmup complete CPU 0 instructions: 25000003 cycles: 7392674 cumulative IPC: 3.382 (Simulation time: 00 hr 01 min 36 sec)
Heartbeat CPU 0 instructions: 30000001 cycles: 49287047 heartbeat IPC: 0.2305 cumulative IPC: 0.1193 (Simulation time: 00 hr 06 min 03 sec)
Heartbeat CPU 0 instructions: 40000002 cycles: 130950131 heartbeat IPC: 0.1225 cumulative IPC: 0.1214 (Simulation time: 00 hr 11 min 40 sec)
Heartbeat CPU 0 instructions: 50000001 cycles: 214804906 heartbeat IPC: 0.1193 cumulative IPC: 0.1205 (Simulation time: 00 hr 15 min 53 sec)
Simulation finished CPU 0 instructions: 25000002 cycles: 207412234 cumulative IPC: 0.1205 (Simulation time: 00 hr 15 min 53 sec)
Simulation complete CPU 0 instructions: 25000002 cycles: 207412234 cumulative IPC: 0.1205 (Simulation time: 00 hr 15 min 53 sec)

ChampSim completed all CPUs

=== Simulation ===
CPU 0 runs ./traces/619.lbm_s-2677B.champsimtrace.xz
Region of Interest Statistics

CPU 0 cumulative IPC: 0.1205 instructions: 25000002 cycles: 207412234
CPU 0 Branch Prediction Accuracy: 95.14% MPKI: 0.8683 Average ROB Occupancy at Mispredict: 294.3
Branch type MPKI
BRANCH_DIRECT_JUMP: 0
BRANCH_INDIRECT: 0
BRANCH_CONDITIONAL: 0.868
BRANCH_DIRECT_CALL: 0
BRANCH_INDIRECT_CALL: 0
BRANCH_RETURN: 0

LLC TOTAL        ACCESS:    3451299 HIT:    1204599 MISS:    2246700
LLC LOAD         ACCESS:     209324 HIT:      15633 MISS:     193691
LLC RFO          ACCESS:    1552506 HIT:     591664 MISS:     960842
LLC PREFETCH     ACCESS:     135179 HIT:      13283 MISS:     121896
LLC WRITE        ACCESS:    1553751 HIT:     583978 MISS:     969773
LLC TRANSLATION  ACCESS:        539 HIT:         41 MISS:        498
LLC PREFETCH REQUESTED:          0 ISSUED:          0 USEFUL:          0 USELESS:          0
LLC AVERAGE MISS LATENCY: 1334 cycles
cpu0_DTLB TOTAL        ACCESS:    5106061 HIT:    5050210 MISS:      55851
cpu0_DTLB LOAD         ACCESS:    5106061 HIT:    5050210 MISS:      55851
cpu0_DTLB RFO          ACCESS:          0 HIT:          0 MISS:          0
cpu0_DTLB PREFETCH     ACCESS:          0 HIT:          0 MISS:          0
cpu0_DTLB WRITE        ACCESS:          0 HIT:          0 MISS:          0
cpu0_DTLB TRANSLATION  ACCESS:          0 HIT:          0 MISS:          0
cpu0_DTLB PREFETCH REQUESTED:          0 ISSUED:          0 USEFUL:          0 USELESS:          0
cpu0_DTLB AVERAGE MISS LATENCY: 163.7 cycles
cpu0_ITLB TOTAL        ACCESS:          0 HIT:          0 MISS:          0
cpu0_ITLB LOAD         ACCESS:          0 HIT:          0 MISS:          0
cpu0_ITLB RFO          ACCESS:          0 HIT:          0 MISS:          0
cpu0_ITLB PREFETCH     ACCESS:          0 HIT:          0 MISS:          0
cpu0_ITLB WRITE        ACCESS:          0 HIT:          0 MISS:          0
cpu0_ITLB TRANSLATION  ACCESS:          0 HIT:          0 MISS:          0
cpu0_ITLB PREFETCH REQUESTED:          0 ISSUED:          0 USEFUL:          0 USELESS:          0
cpu0_ITLB AVERAGE MISS LATENCY: -nan cycles
cpu0_L1D TOTAL        ACCESS:    7957702 HIT:    4886367 MISS:    3071335
cpu0_L1D LOAD         ACCESS:    1689089 HIT:    1138680 MISS:     550409
cpu0_L1D RFO          ACCESS:          0 HIT:          0 MISS:          0
cpu0_L1D PREFETCH     ACCESS:    1686228 HIT:     960341 MISS:     725887
cpu0_L1D WRITE        ACCESS:    4563891 HIT:    2787325 MISS:    1776566
cpu0_L1D TRANSLATION  ACCESS:      18494 HIT:         21 MISS:      18473
cpu0_L1D PREFETCH REQUESTED:   21575825 ISSUED:    1686230 USEFUL:      70938 USELESS:       2652
cpu0_L1D AVERAGE MISS LATENCY: 894.8 cycles
cpu0_L1I TOTAL        ACCESS:          0 HIT:          0 MISS:          0
cpu0_L1I LOAD         ACCESS:          0 HIT:          0 MISS:          0
cpu0_L1I RFO          ACCESS:          0 HIT:          0 MISS:          0
cpu0_L1I PREFETCH     ACCESS:          0 HIT:          0 MISS:          0
cpu0_L1I WRITE        ACCESS:          0 HIT:          0 MISS:          0
cpu0_L1I TRANSLATION  ACCESS:          0 HIT:          0 MISS:          0
cpu0_L1I PREFETCH REQUESTED:          0 ISSUED:          0 USEFUL:          0 USELESS:          0
cpu0_L1I AVERAGE MISS LATENCY: -nan cycles
cpu0_L2C TOTAL        ACCESS:    3743900 HIT:    1843302 MISS:    1900598
cpu0_L2C LOAD         ACCESS:     224937 HIT:      14852 MISS:     210085
cpu0_L2C RFO          ACCESS:    1675291 HIT:     122786 MISS:    1552505
cpu0_L2C PREFETCH     ACCESS:     149893 HIT:      12424 MISS:     137469
cpu0_L2C WRITE        ACCESS:    1675306 HIT:    1675306 MISS:          0
cpu0_L2C TRANSLATION  ACCESS:      18473 HIT:      17934 MISS:        539
cpu0_L2C PREFETCH REQUESTED:      76301 ISSUED:      76301 USEFUL:      15871 USELESS:        349
cpu0_L2C AVERAGE MISS LATENCY: 1559 cycles
cpu0_STLB TOTAL        ACCESS:      34048 HIT:      15572 MISS:      18476
cpu0_STLB LOAD         ACCESS:      34048 HIT:      15572 MISS:      18476
cpu0_STLB RFO          ACCESS:          0 HIT:          0 MISS:          0
cpu0_STLB PREFETCH     ACCESS:          0 HIT:          0 MISS:          0
cpu0_STLB WRITE        ACCESS:          0 HIT:          0 MISS:          0
cpu0_STLB TRANSLATION  ACCESS:          0 HIT:          0 MISS:          0
cpu0_STLB PREFETCH REQUESTED:          0 ISSUED:          0 USEFUL:          0 USELESS:          0
cpu0_STLB AVERAGE MISS LATENCY: 609.4 cycles

DRAM Statistics

Channel 0 RQ ROW_BUFFER_HIT:      96928
  ROW_BUFFER_MISS:    1160794
 AVG DBUS CONGESTED CYCLE: 3.986
WQ ROW_BUFFER_HIT: Channel 0 
  ROW_BUFFER_MISS:      38095
  FULL:     941342
