WARNING: physical memory size is smaller than virtual memory size.

*** ChampSim Multicore Out-of-Order Simulator ***
Warmup Instructions: 25000000
Simulation Instructions: 25000000
Number of CPUs: 1
Page size: 4096

Off-chip DRAM Size: 4 GiB Channels: 1 Width: 64-bit Data Race: 800 MT/s
Heartbeat CPU 0 instructions: 10000003 cycles: 2500085 heartbeat IPC: 4 cumulative IPC: 4 (Simulation time: 00 hr 00 min 27 sec)
Heartbeat CPU 0 instructions: 20000002 cycles: 5008066 heartbeat IPC: 3.987 cumulative IPC: 3.994 (Simulation time: 00 hr 00 min 55 sec)
Warmup finished CPU 0 instructions: 25000002 cycles: 6258067 cumulative IPC: 3.995 (Simulation time: 00 hr 01 min 09 sec)
Warmup complete CPU 0 instructions: 25000002 cycles: 6258067 cumulative IPC: 3.995 (Simulation time: 00 hr 01 min 09 sec)
Heartbeat CPU 0 instructions: 30000002 cycles: 28533505 heartbeat IPC: 0.4251 cumulative IPC: 0.2245 (Simulation time: 00 hr 03 min 22 sec)
Heartbeat CPU 0 instructions: 40000000 cycles: 72222288 heartbeat IPC: 0.2289 cumulative IPC: 0.2274 (Simulation time: 00 hr 07 min 47 sec)
Heartbeat CPU 0 instructions: 50000001 cycles: 124080697 heartbeat IPC: 0.1928 cumulative IPC: 0.2122 (Simulation time: 00 hr 13 min 00 sec)
Simulation finished CPU 0 instructions: 25000003 cycles: 117822632 cumulative IPC: 0.2122 (Simulation time: 00 hr 13 min 00 sec)
Simulation complete CPU 0 instructions: 25000003 cycles: 117822632 cumulative IPC: 0.2122 (Simulation time: 00 hr 13 min 00 sec)

ChampSim completed all CPUs

=== Simulation ===
CPU 0 runs ./traces/619.lbm_s-3766B.champsimtrace.xz
Region of Interest Statistics

CPU 0 cumulative IPC: 0.2122 instructions: 25000003 cycles: 117822632
CPU 0 Branch Prediction Accuracy: 99.7% MPKI: 0.03212 Average ROB Occupancy at Mispredict: 260
Branch type MPKI
BRANCH_DIRECT_JUMP: 0
BRANCH_INDIRECT: 0
BRANCH_CONDITIONAL: 0.0321
BRANCH_DIRECT_CALL: 0
BRANCH_INDIRECT_CALL: 0
BRANCH_RETURN: 0

LLC TOTAL        ACCESS:    1387477 HIT:     140531 MISS:    1246946
LLC LOAD         ACCESS:      63583 HIT:        876 MISS:      62707
LLC RFO          ACCESS:     623025 HIT:      62257 MISS:     560768
LLC PREFETCH     ACCESS:      76203 HIT:       1461 MISS:      74742
LLC WRITE        ACCESS:     624227 HIT:      75931 MISS:     548296
LLC TRANSLATION  ACCESS:        439 HIT:          6 MISS:        433
LLC PREFETCH REQUESTED:          0 ISSUED:          0 USEFUL:          0 USELESS:          0
LLC AVERAGE MISS LATENCY: 1326 cycles
cpu0_DTLB TOTAL        ACCESS:    4108721 HIT:    4085931 MISS:      22790
cpu0_DTLB LOAD         ACCESS:    4108721 HIT:    4085931 MISS:      22790
cpu0_DTLB RFO          ACCESS:          0 HIT:          0 MISS:          0
cpu0_DTLB PREFETCH     ACCESS:          0 HIT:          0 MISS:          0
cpu0_DTLB WRITE        ACCESS:          0 HIT:          0 MISS:          0
cpu0_DTLB TRANSLATION  ACCESS:          0 HIT:          0 MISS:          0
cpu0_DTLB PREFETCH REQUESTED:          0 ISSUED:          0 USEFUL:          0 USELESS:          0
cpu0_DTLB AVERAGE MISS LATENCY: 226.4 cycles
cpu0_ITLB TOTAL        ACCESS:          0 HIT:          0 MISS:          0
cpu0_ITLB LOAD         ACCESS:          0 HIT:          0 MISS:          0
cpu0_ITLB RFO          ACCESS:          0 HIT:          0 MISS:          0
cpu0_ITLB PREFETCH     ACCESS:          0 HIT:          0 MISS:          0
cpu0_ITLB WRITE        ACCESS:          0 HIT:          0 MISS:          0
cpu0_ITLB TRANSLATION  ACCESS:          0 HIT:          0 MISS:          0
cpu0_ITLB PREFETCH REQUESTED:          0 ISSUED:          0 USEFUL:          0 USELESS:          0
cpu0_ITLB AVERAGE MISS LATENCY: -nan cycles
cpu0_L1D TOTAL        ACCESS:    6888060 HIT:    5156174 MISS:    1731886
cpu0_L1D LOAD         ACCESS:    1583689 HIT:    1261082 MISS:     322607
cpu0_L1D RFO          ACCESS:          0 HIT:          0 MISS:          0
cpu0_L1D PREFETCH     ACCESS:    1588292 HIT:    1011806 MISS:     576486
cpu0_L1D WRITE        ACCESS:    3707603 HIT:    2883284 MISS:     824319
cpu0_L1D TRANSLATION  ACCESS:       8476 HIT:          2 MISS:       8474
cpu0_L1D PREFETCH REQUESTED:    3410577 ISSUED:    1588295 USEFUL:      52386 USELESS:       1265
cpu0_L1D AVERAGE MISS LATENCY: 872 cycles
cpu0_L1I TOTAL        ACCESS:          0 HIT:          0 MISS:          0
cpu0_L1I LOAD         ACCESS:          0 HIT:          0 MISS:          0
cpu0_L1I RFO          ACCESS:          0 HIT:          0 MISS:          0
cpu0_L1I PREFETCH     ACCESS:          0 HIT:          0 MISS:          0
cpu0_L1I WRITE        ACCESS:          0 HIT:          0 MISS:          0
cpu0_L1I TRANSLATION  ACCESS:          0 HIT:          0 MISS:          0
cpu0_L1I PREFETCH REQUESTED:          0 ISSUED:          0 USEFUL:          0 USELESS:          0
cpu0_L1I AVERAGE MISS LATENCY: -nan cycles
cpu0_L2C TOTAL        ACCESS:    1737864 HIT:     974225 MISS:     763639
cpu0_L2C LOAD         ACCESS:      83052 HIT:      19458 MISS:      63594
cpu0_L2C RFO          ACCESS:     768772 HIT:     145745 MISS:     623027
cpu0_L2C PREFETCH     ACCESS:     108793 HIT:      32214 MISS:      76579
cpu0_L2C WRITE        ACCESS:     768773 HIT:     768773 MISS:          0
cpu0_L2C TRANSLATION  ACCESS:       8474 HIT:       8035 MISS:        439
cpu0_L2C PREFETCH REQUESTED:      55143 ISSUED:      55143 USEFUL:      19698 USELESS:        136
cpu0_L2C AVERAGE MISS LATENCY: 2179 cycles
cpu0_STLB TOTAL        ACCESS:      15602 HIT:       7134 MISS:       8468
cpu0_STLB LOAD         ACCESS:      15602 HIT:       7134 MISS:       8468
cpu0_STLB RFO          ACCESS:          0 HIT:          0 MISS:          0
cpu0_STLB PREFETCH     ACCESS:          0 HIT:          0 MISS:          0
cpu0_STLB WRITE        ACCESS:          0 HIT:          0 MISS:          0
cpu0_STLB TRANSLATION  ACCESS:          0 HIT:          0 MISS:          0
cpu0_STLB PREFETCH REQUESTED:          0 ISSUED:          0 USEFUL:          0 USELESS:          0
cpu0_STLB AVERAGE MISS LATENCY: 688.2 cycles

DRAM Statistics

Channel 0 RQ ROW_BUFFER_HIT:      44538
  ROW_BUFFER_MISS:     632496
 AVG DBUS CONGESTED CYCLE: 3.988
WQ ROW_BUFFER_HIT: Channel 0 
  ROW_BUFFER_MISS:      35198
  FULL:     533342
