WARNING: physical memory size is smaller than virtual memory size.

*** ChampSim Multicore Out-of-Order Simulator ***
Warmup Instructions: 25000000
Simulation Instructions: 25000000
Number of CPUs: 1
Page size: 4096

Off-chip DRAM Size: 4 GiB Channels: 1 Width: 64-bit Data Race: 800 MT/s
Heartbeat CPU 0 instructions: 10000002 cycles: 2503650 heartbeat IPC: 3.994 cumulative IPC: 3.994 (Simulation time: 00 hr 00 min 34 sec)
Heartbeat CPU 0 instructions: 20000002 cycles: 5008018 heartbeat IPC: 3.993 cumulative IPC: 3.994 (Simulation time: 00 hr 01 min 12 sec)
Warmup finished CPU 0 instructions: 25000003 cycles: 6260614 cumulative IPC: 3.993 (Simulation time: 00 hr 01 min 30 sec)
Warmup complete CPU 0 instructions: 25000003 cycles: 6260614 cumulative IPC: 3.993 (Simulation time: 00 hr 01 min 30 sec)
Heartbeat CPU 0 instructions: 30000003 cycles: 22294035 heartbeat IPC: 0.5785 cumulative IPC: 0.3118 (Simulation time: 00 hr 03 min 07 sec)
Heartbeat CPU 0 instructions: 40000001 cycles: 55527390 heartbeat IPC: 0.3009 cumulative IPC: 0.3045 (Simulation time: 00 hr 06 min 04 sec)
Heartbeat CPU 0 instructions: 50000000 cycles: 88568760 heartbeat IPC: 0.3027 cumulative IPC: 0.3037 (Simulation time: 00 hr 08 min 57 sec)
Simulation finished CPU 0 instructions: 25000000 cycles: 82308158 cumulative IPC: 0.3037 (Simulation time: 00 hr 08 min 57 sec)
Simulation complete CPU 0 instructions: 25000000 cycles: 82308158 cumulative IPC: 0.3037 (Simulation time: 00 hr 08 min 57 sec)

ChampSim completed all CPUs

=== Simulation ===
CPU 0 runs ./traces/620.omnetpp_s-141B.champsimtrace.xz
Region of Interest Statistics

CPU 0 cumulative IPC: 0.3037 instructions: 25000000 cycles: 82308158
CPU 0 Branch Prediction Accuracy: 91.43% MPKI: 18.03 Average ROB Occupancy at Mispredict: 52.25
Branch type MPKI
BRANCH_DIRECT_JUMP: 0.836
BRANCH_INDIRECT: 0.351
BRANCH_CONDITIONAL: 15.5
BRANCH_DIRECT_CALL: 0.00252
BRANCH_INDIRECT_CALL: 0.858
BRANCH_RETURN: 0.445

LLC TOTAL        ACCESS:     915486 HIT:     131136 MISS:     784350
LLC LOAD         ACCESS:     297234 HIT:      44515 MISS:     252719
LLC RFO          ACCESS:      30541 HIT:       2852 MISS:      27689
LLC PREFETCH     ACCESS:     267019 HIT:      27720 MISS:     239299
LLC WRITE        ACCESS:     198986 HIT:      49735 MISS:     149251
LLC TRANSLATION  ACCESS:     121706 HIT:       6314 MISS:     115392
LLC PREFETCH REQUESTED:          0 ISSUED:          0 USEFUL:          0 USELESS:          0
LLC AVERAGE MISS LATENCY: 335.5 cycles
cpu0_DTLB TOTAL        ACCESS:    8070951 HIT:    7433877 MISS:     637074
cpu0_DTLB LOAD         ACCESS:    8070951 HIT:    7433877 MISS:     637074
cpu0_DTLB RFO          ACCESS:          0 HIT:          0 MISS:          0
cpu0_DTLB PREFETCH     ACCESS:          0 HIT:          0 MISS:          0
cpu0_DTLB WRITE        ACCESS:          0 HIT:          0 MISS:          0
cpu0_DTLB TRANSLATION  ACCESS:          0 HIT:          0 MISS:          0
cpu0_DTLB PREFETCH REQUESTED:          0 ISSUED:          0 USEFUL:          0 USELESS:          0
cpu0_DTLB AVERAGE MISS LATENCY: 97.57 cycles
cpu0_ITLB TOTAL        ACCESS:    1966011 HIT:    1910001 MISS:      56010
cpu0_ITLB LOAD         ACCESS:    1966011 HIT:    1910001 MISS:      56010
cpu0_ITLB RFO          ACCESS:          0 HIT:          0 MISS:          0
cpu0_ITLB PREFETCH     ACCESS:          0 HIT:          0 MISS:          0
cpu0_ITLB WRITE        ACCESS:          0 HIT:          0 MISS:          0
cpu0_ITLB TRANSLATION  ACCESS:          0 HIT:          0 MISS:          0
cpu0_ITLB PREFETCH REQUESTED:          0 ISSUED:          0 USEFUL:          0 USELESS:          0
cpu0_ITLB AVERAGE MISS LATENCY: 5.044 cycles
cpu0_L1D TOTAL        ACCESS:   15191531 HIT:   13477118 MISS:    1714413
cpu0_L1D LOAD         ACCESS:    5681176 HIT:    4984810 MISS:     696366
cpu0_L1D RFO          ACCESS:          0 HIT:          0 MISS:          0
cpu0_L1D PREFETCH     ACCESS:    4743166 HIT:    4032790 MISS:     710376
cpu0_L1D WRITE        ACCESS:    4592371 HIT:    4445598 MISS:     146773
cpu0_L1D TRANSLATION  ACCESS:     174818 HIT:      13920 MISS:     160898
cpu0_L1D PREFETCH REQUESTED:    5822551 ISSUED:    4743158 USEFUL:      96960 USELESS:     317606
cpu0_L1D AVERAGE MISS LATENCY: 161.6 cycles
cpu0_L1I TOTAL        ACCESS:    2152361 HIT:    2134213 MISS:      18148
cpu0_L1I LOAD         ACCESS:    2152361 HIT:    2134213 MISS:      18148
cpu0_L1I RFO          ACCESS:          0 HIT:          0 MISS:          0
cpu0_L1I PREFETCH     ACCESS:          0 HIT:          0 MISS:          0
cpu0_L1I WRITE        ACCESS:          0 HIT:          0 MISS:          0
cpu0_L1I TRANSLATION  ACCESS:          0 HIT:          0 MISS:          0
cpu0_L1I PREFETCH REQUESTED:          0 ISSUED:          0 USEFUL:          0 USELESS:          0
cpu0_L1I AVERAGE MISS LATENCY: 69.85 cycles
cpu0_L2C TOTAL        ACCESS:    1373649 HIT:     655745 MISS:     717904
cpu0_L2C LOAD         ACCESS:     480257 HIT:     183022 MISS:     297235
cpu0_L2C RFO          ACCESS:      40029 HIT:       9488 MISS:      30541
cpu0_L2C PREFETCH     ACCESS:     418516 HIT:     151483 MISS:     267033
cpu0_L2C WRITE        ACCESS:     274197 HIT:     272808 MISS:       1389
cpu0_L2C TRANSLATION  ACCESS:     160650 HIT:      38944 MISS:     121706
cpu0_L2C PREFETCH REQUESTED:       3889 ISSUED:       3889 USEFUL:        617 USELESS:       2938
cpu0_L2C AVERAGE MISS LATENCY: 387.4 cycles
cpu0_STLB TOTAL        ACCESS:     538601 HIT:     414888 MISS:     123713
cpu0_STLB LOAD         ACCESS:     538601 HIT:     414888 MISS:     123713
cpu0_STLB RFO          ACCESS:          0 HIT:          0 MISS:          0
cpu0_STLB PREFETCH     ACCESS:          0 HIT:          0 MISS:          0
cpu0_STLB WRITE        ACCESS:          0 HIT:          0 MISS:          0
cpu0_STLB TRANSLATION  ACCESS:          0 HIT:          0 MISS:          0
cpu0_STLB PREFETCH REQUESTED:          0 ISSUED:          0 USEFUL:          0 USELESS:          0
cpu0_STLB AVERAGE MISS LATENCY: 480.2 cycles

DRAM Statistics

Channel 0 RQ ROW_BUFFER_HIT:      47963
  ROW_BUFFER_MISS:     586624
 AVG DBUS CONGESTED CYCLE: 3.952
WQ ROW_BUFFER_HIT: Channel 0 
  ROW_BUFFER_MISS:       1843
  FULL:     163657
