WARNING: physical memory size is smaller than virtual memory size.

*** ChampSim Multicore Out-of-Order Simulator ***
Warmup Instructions: 25000000
Simulation Instructions: 25000000
Number of CPUs: 1
Page size: 4096

Off-chip DRAM Size: 4 GiB Channels: 1 Width: 64-bit Data Race: 800 MT/s
Heartbeat CPU 0 instructions: 10000000 cycles: 2502422 heartbeat IPC: 3.996 cumulative IPC: 3.996 (Simulation time: 00 hr 00 min 34 sec)
Heartbeat CPU 0 instructions: 20000003 cycles: 5004528 heartbeat IPC: 3.997 cumulative IPC: 3.996 (Simulation time: 00 hr 01 min 09 sec)
Warmup finished CPU 0 instructions: 25000001 cycles: 6255715 cumulative IPC: 3.996 (Simulation time: 00 hr 01 min 27 sec)
Warmup complete CPU 0 instructions: 25000001 cycles: 6255715 cumulative IPC: 3.996 (Simulation time: 00 hr 01 min 27 sec)
Heartbeat CPU 0 instructions: 30000002 cycles: 22287986 heartbeat IPC: 0.5786 cumulative IPC: 0.3119 (Simulation time: 00 hr 02 min 54 sec)
Heartbeat CPU 0 instructions: 40000000 cycles: 52781206 heartbeat IPC: 0.3279 cumulative IPC: 0.3224 (Simulation time: 00 hr 05 min 41 sec)
Heartbeat CPU 0 instructions: 50000001 cycles: 83333915 heartbeat IPC: 0.3273 cumulative IPC: 0.3243 (Simulation time: 00 hr 08 min 29 sec)
Simulation finished CPU 0 instructions: 25000000 cycles: 77078201 cumulative IPC: 0.3243 (Simulation time: 00 hr 08 min 29 sec)
Simulation complete CPU 0 instructions: 25000000 cycles: 77078201 cumulative IPC: 0.3243 (Simulation time: 00 hr 08 min 29 sec)

ChampSim completed all CPUs

=== Simulation ===
CPU 0 runs ./traces/620.omnetpp_s-874B.champsimtrace.xz
Region of Interest Statistics

CPU 0 cumulative IPC: 0.3243 instructions: 25000000 cycles: 77078201
CPU 0 Branch Prediction Accuracy: 92.93% MPKI: 14.75 Average ROB Occupancy at Mispredict: 63.26
Branch type MPKI
BRANCH_DIRECT_JUMP: 0.944
BRANCH_INDIRECT: 0.117
BRANCH_CONDITIONAL: 12.6
BRANCH_DIRECT_CALL: 0.00312
BRANCH_INDIRECT_CALL: 0.731
BRANCH_RETURN: 0.39

LLC TOTAL        ACCESS:     882670 HIT:     133484 MISS:     749186
LLC LOAD         ACCESS:     287109 HIT:      45543 MISS:     241566
LLC RFO          ACCESS:      33730 HIT:       4109 MISS:      29621
LLC PREFETCH     ACCESS:     256496 HIT:      27550 MISS:     228946
LLC WRITE        ACCESS:     199302 HIT:      51400 MISS:     147902
LLC TRANSLATION  ACCESS:     106033 HIT:       4882 MISS:     101151
LLC PREFETCH REQUESTED:          0 ISSUED:          0 USEFUL:          0 USELESS:          0
LLC AVERAGE MISS LATENCY: 337.1 cycles
cpu0_DTLB TOTAL        ACCESS:    7880985 HIT:    7272893 MISS:     608092
cpu0_DTLB LOAD         ACCESS:    7880985 HIT:    7272893 MISS:     608092
cpu0_DTLB RFO          ACCESS:          0 HIT:          0 MISS:          0
cpu0_DTLB PREFETCH     ACCESS:          0 HIT:          0 MISS:          0
cpu0_DTLB WRITE        ACCESS:          0 HIT:          0 MISS:          0
cpu0_DTLB TRANSLATION  ACCESS:          0 HIT:          0 MISS:          0
cpu0_DTLB PREFETCH REQUESTED:          0 ISSUED:          0 USEFUL:          0 USELESS:          0
cpu0_DTLB AVERAGE MISS LATENCY: 91.48 cycles
cpu0_ITLB TOTAL        ACCESS:    2032047 HIT:    1974840 MISS:      57207
cpu0_ITLB LOAD         ACCESS:    2032047 HIT:    1974840 MISS:      57207
cpu0_ITLB RFO          ACCESS:          0 HIT:          0 MISS:          0
cpu0_ITLB PREFETCH     ACCESS:          0 HIT:          0 MISS:          0
cpu0_ITLB WRITE        ACCESS:          0 HIT:          0 MISS:          0
cpu0_ITLB TRANSLATION  ACCESS:          0 HIT:          0 MISS:          0
cpu0_ITLB PREFETCH REQUESTED:          0 ISSUED:          0 USEFUL:          0 USELESS:          0
cpu0_ITLB AVERAGE MISS LATENCY: 6.254 cycles
cpu0_L1D TOTAL        ACCESS:   14755604 HIT:   13091678 MISS:    1663926
cpu0_L1D LOAD         ACCESS:    5568803 HIT:    4880981 MISS:     687822
cpu0_L1D RFO          ACCESS:          0 HIT:          0 MISS:          0
cpu0_L1D PREFETCH     ACCESS:    4428349 HIT:    3745195 MISS:     683154
cpu0_L1D WRITE        ACCESS:    4605113 HIT:    4454209 MISS:     150904
cpu0_L1D TRANSLATION  ACCESS:     153339 HIT:      11293 MISS:     142046
cpu0_L1D PREFETCH REQUESTED:    5633036 ISSUED:    4428345 USEFUL:      95144 USELESS:     285988
cpu0_L1D AVERAGE MISS LATENCY: 159.5 cycles
cpu0_L1I TOTAL        ACCESS:    2223396 HIT:    2210644 MISS:      12752
cpu0_L1I LOAD         ACCESS:    2223396 HIT:    2210644 MISS:      12752
cpu0_L1I RFO          ACCESS:          0 HIT:          0 MISS:          0
cpu0_L1I PREFETCH     ACCESS:          0 HIT:          0 MISS:          0
cpu0_L1I WRITE        ACCESS:          0 HIT:          0 MISS:          0
cpu0_L1I TRANSLATION  ACCESS:          0 HIT:          0 MISS:          0
cpu0_L1I PREFETCH REQUESTED:          0 ISSUED:          0 USEFUL:          0 USELESS:          0
cpu0_L1I AVERAGE MISS LATENCY: 50.86 cycles
cpu0_L2C TOTAL        ACCESS:    1286190 HIT:     601305 MISS:     684885
cpu0_L2C LOAD         ACCESS:     447449 HIT:     160329 MISS:     287120
cpu0_L2C RFO          ACCESS:      41443 HIT:       7713 MISS:      33730
cpu0_L2C PREFETCH     ACCESS:     386282 HIT:     129758 MISS:     256524
cpu0_L2C WRITE        ACCESS:     269221 HIT:     267742 MISS:       1479
cpu0_L2C TRANSLATION  ACCESS:     141795 HIT:      35763 MISS:     106032
cpu0_L2C PREFETCH REQUESTED:       5093 ISSUED:       5093 USEFUL:        949 USELESS:       3546
cpu0_L2C AVERAGE MISS LATENCY: 389.6 cycles
cpu0_STLB TOTAL        ACCESS:     509061 HIT:     398789 MISS:     110272
cpu0_STLB LOAD         ACCESS:     509061 HIT:     398789 MISS:     110272
cpu0_STLB RFO          ACCESS:          0 HIT:          0 MISS:          0
cpu0_STLB PREFETCH     ACCESS:          0 HIT:          0 MISS:          0
cpu0_STLB WRITE        ACCESS:          0 HIT:          0 MISS:          0
cpu0_STLB TRANSLATION  ACCESS:          0 HIT:          0 MISS:          0
cpu0_STLB PREFETCH REQUESTED:          0 ISSUED:          0 USEFUL:          0 USELESS:          0
cpu0_STLB AVERAGE MISS LATENCY: 481.9 cycles

DRAM Statistics

Channel 0 RQ ROW_BUFFER_HIT:      53221
  ROW_BUFFER_MISS:     547175
 AVG DBUS CONGESTED CYCLE: 3.951
WQ ROW_BUFFER_HIT: Channel 0 
  ROW_BUFFER_MISS:       1019
  FULL:     162260
