WARNING: physical memory size is smaller than virtual memory size.

*** ChampSim Multicore Out-of-Order Simulator ***
Warmup Instructions: 25000000
Simulation Instructions: 25000000
Number of CPUs: 1
Page size: 4096

Off-chip DRAM Size: 4 GiB Channels: 1 Width: 64-bit Data Race: 800 MT/s
Heartbeat CPU 0 instructions: 10000002 cycles: 2605788 heartbeat IPC: 3.838 cumulative IPC: 3.838 (Simulation time: 00 hr 00 min 28 sec)
Heartbeat CPU 0 instructions: 20000002 cycles: 5105788 heartbeat IPC: 4 cumulative IPC: 3.917 (Simulation time: 00 hr 00 min 53 sec)
Warmup finished CPU 0 instructions: 25000002 cycles: 6355789 cumulative IPC: 3.933 (Simulation time: 00 hr 01 min 06 sec)
Warmup complete CPU 0 instructions: 25000002 cycles: 6355789 cumulative IPC: 3.933 (Simulation time: 00 hr 01 min 06 sec)
Heartbeat CPU 0 instructions: 30000000 cycles: 16902064 heartbeat IPC: 0.8477 cumulative IPC: 0.4741 (Simulation time: 00 hr 02 min 19 sec)
Heartbeat CPU 0 instructions: 40000001 cycles: 26413265 heartbeat IPC: 1.051 cumulative IPC: 0.7479 (Simulation time: 00 hr 03 min 29 sec)
Heartbeat CPU 0 instructions: 50000002 cycles: 34041936 heartbeat IPC: 1.311 cumulative IPC: 0.903 (Simulation time: 00 hr 04 min 33 sec)
Simulation finished CPU 0 instructions: 25000000 cycles: 27686148 cumulative IPC: 0.903 (Simulation time: 00 hr 04 min 33 sec)
Simulation complete CPU 0 instructions: 25000000 cycles: 27686148 cumulative IPC: 0.903 (Simulation time: 00 hr 04 min 33 sec)

ChampSim completed all CPUs

=== Simulation ===
CPU 0 runs ./traces/621.wrf_s-8065B.champsimtrace.xz
Region of Interest Statistics

CPU 0 cumulative IPC: 0.903 instructions: 25000000 cycles: 27686148
CPU 0 Branch Prediction Accuracy: 95.11% MPKI: 1.601 Average ROB Occupancy at Mispredict: 268.4
Branch type MPKI
BRANCH_DIRECT_JUMP: 0.00028
BRANCH_INDIRECT: 0
BRANCH_CONDITIONAL: 1.6
BRANCH_DIRECT_CALL: 0.00096
BRANCH_INDIRECT_CALL: 0
BRANCH_RETURN: 0.00104

LLC TOTAL        ACCESS:     443519 HIT:      53162 MISS:     390357
LLC LOAD         ACCESS:      59064 HIT:      12815 MISS:      46249
LLC RFO          ACCESS:      76634 HIT:       5204 MISS:      71430
LLC PREFETCH     ACCESS:     167976 HIT:      22886 MISS:     145090
LLC WRITE        ACCESS:     139634 HIT:      12239 MISS:     127395
LLC TRANSLATION  ACCESS:        211 HIT:         18 MISS:        193
LLC PREFETCH REQUESTED:          0 ISSUED:          0 USEFUL:          0 USELESS:          0
LLC AVERAGE MISS LATENCY: 682.1 cycles
cpu0_DTLB TOTAL        ACCESS:    6004118 HIT:    5966866 MISS:      37252
cpu0_DTLB LOAD         ACCESS:    6004118 HIT:    5966866 MISS:      37252
cpu0_DTLB RFO          ACCESS:          0 HIT:          0 MISS:          0
cpu0_DTLB PREFETCH     ACCESS:          0 HIT:          0 MISS:          0
cpu0_DTLB WRITE        ACCESS:          0 HIT:          0 MISS:          0
cpu0_DTLB TRANSLATION  ACCESS:          0 HIT:          0 MISS:          0
cpu0_DTLB PREFETCH REQUESTED:          0 ISSUED:          0 USEFUL:          0 USELESS:          0
cpu0_DTLB AVERAGE MISS LATENCY: 12.27 cycles
cpu0_ITLB TOTAL        ACCESS:       1825 HIT:       1738 MISS:         87
cpu0_ITLB LOAD         ACCESS:       1825 HIT:       1738 MISS:         87
cpu0_ITLB RFO          ACCESS:          0 HIT:          0 MISS:          0
cpu0_ITLB PREFETCH     ACCESS:          0 HIT:          0 MISS:          0
cpu0_ITLB WRITE        ACCESS:          0 HIT:          0 MISS:          0
cpu0_ITLB TRANSLATION  ACCESS:          0 HIT:          0 MISS:          0
cpu0_ITLB PREFETCH REQUESTED:          0 ISSUED:          0 USEFUL:          0 USELESS:          0
cpu0_ITLB AVERAGE MISS LATENCY: 119.1 cycles
cpu0_L1D TOTAL        ACCESS:    9902248 HIT:    8013683 MISS:    1888565
cpu0_L1D LOAD         ACCESS:    6228534 HIT:    5433319 MISS:     795215
cpu0_L1D RFO          ACCESS:          0 HIT:          0 MISS:          0
cpu0_L1D PREFETCH     ACCESS:    2575852 HIT:    1886248 MISS:     689604
cpu0_L1D WRITE        ACCESS:    1096051 HIT:     693391 MISS:     402660
cpu0_L1D TRANSLATION  ACCESS:       1811 HIT:        725 MISS:       1086
cpu0_L1D PREFETCH REQUESTED:    7733915 ISSUED:    2575858 USEFUL:     206798 USELESS:      12889
cpu0_L1D AVERAGE MISS LATENCY: 115.5 cycles
cpu0_L1I TOTAL        ACCESS:       2303 HIT:        537 MISS:       1766
cpu0_L1I LOAD         ACCESS:       2303 HIT:        537 MISS:       1766
cpu0_L1I RFO          ACCESS:          0 HIT:          0 MISS:          0
cpu0_L1I PREFETCH     ACCESS:          0 HIT:          0 MISS:          0
cpu0_L1I WRITE        ACCESS:          0 HIT:          0 MISS:          0
cpu0_L1I TRANSLATION  ACCESS:          0 HIT:          0 MISS:          0
cpu0_L1I PREFETCH REQUESTED:          0 ISSUED:          0 USEFUL:          0 USELESS:          0
cpu0_L1I AVERAGE MISS LATENCY: 378.5 cycles
cpu0_L2C TOTAL        ACCESS:     685424 HIT:     338021 MISS:     347403
cpu0_L2C LOAD         ACCESS:     118808 HIT:      51019 MISS:      67789
cpu0_L2C RFO          ACCESS:      84645 HIT:       8011 MISS:      76634
cpu0_L2C PREFETCH     ACCESS:     321497 HIT:     118812 MISS:     202685
cpu0_L2C WRITE        ACCESS:     159413 HIT:     159329 MISS:         84
cpu0_L2C TRANSLATION  ACCESS:       1061 HIT:        850 MISS:        211
cpu0_L2C PREFETCH REQUESTED:     101840 ISSUED:     101834 USEFUL:      29821 USELESS:      10857
cpu0_L2C AVERAGE MISS LATENCY: 765.3 cycles
cpu0_STLB TOTAL        ACCESS:      25340 HIT:      23531 MISS:       1809
cpu0_STLB LOAD         ACCESS:      25340 HIT:      23531 MISS:       1809
cpu0_STLB RFO          ACCESS:          0 HIT:          0 MISS:          0
cpu0_STLB PREFETCH     ACCESS:          0 HIT:          0 MISS:          0
cpu0_STLB WRITE        ACCESS:          0 HIT:          0 MISS:          0
cpu0_STLB TRANSLATION  ACCESS:          0 HIT:          0 MISS:          0
cpu0_STLB PREFETCH REQUESTED:          0 ISSUED:          0 USEFUL:          0 USELESS:          0
cpu0_STLB AVERAGE MISS LATENCY: 253.9 cycles

DRAM Statistics

Channel 0 RQ ROW_BUFFER_HIT:      57947
  ROW_BUFFER_MISS:     195220
 AVG DBUS CONGESTED CYCLE: 3.926
WQ ROW_BUFFER_HIT: Channel 0 
  ROW_BUFFER_MISS:      30748
  FULL:     100295
