WARNING: physical memory size is smaller than virtual memory size.

*** ChampSim Multicore Out-of-Order Simulator ***
Warmup Instructions: 25000000
Simulation Instructions: 25000000
Number of CPUs: 1
Page size: 4096

Off-chip DRAM Size: 4 GiB Channels: 1 Width: 64-bit Data Race: 800 MT/s
Heartbeat CPU 0 instructions: 10000003 cycles: 2500092 heartbeat IPC: 4 cumulative IPC: 4 (Simulation time: 00 hr 00 min 29 sec)
Heartbeat CPU 0 instructions: 20000003 cycles: 5002123 heartbeat IPC: 3.997 cumulative IPC: 3.998 (Simulation time: 00 hr 00 min 55 sec)
Warmup finished CPU 0 instructions: 25000001 cycles: 6252179 cumulative IPC: 3.999 (Simulation time: 00 hr 01 min 08 sec)
Warmup complete CPU 0 instructions: 25000001 cycles: 6252179 cumulative IPC: 3.999 (Simulation time: 00 hr 01 min 08 sec)
Heartbeat CPU 0 instructions: 30000001 cycles: 10244110 heartbeat IPC: 1.908 cumulative IPC: 1.253 (Simulation time: 00 hr 01 min 43 sec)
Heartbeat CPU 0 instructions: 40000000 cycles: 44140421 heartbeat IPC: 0.295 cumulative IPC: 0.3959 (Simulation time: 00 hr 05 min 30 sec)
Heartbeat CPU 0 instructions: 50000003 cycles: 61793973 heartbeat IPC: 0.5665 cumulative IPC: 0.4501 (Simulation time: 00 hr 07 min 47 sec)
Simulation finished CPU 0 instructions: 25000002 cycles: 55541795 cumulative IPC: 0.4501 (Simulation time: 00 hr 07 min 47 sec)
Simulation complete CPU 0 instructions: 25000002 cycles: 55541795 cumulative IPC: 0.4501 (Simulation time: 00 hr 07 min 47 sec)

ChampSim completed all CPUs

=== Simulation ===
CPU 0 runs ./traces/621.wrf_s-6673B.champsimtrace.xz
Region of Interest Statistics

CPU 0 cumulative IPC: 0.4501 instructions: 25000002 cycles: 55541795
CPU 0 Branch Prediction Accuracy: 96.82% MPKI: 2.139 Average ROB Occupancy at Mispredict: 296.5
Branch type MPKI
BRANCH_DIRECT_JUMP: 0.00072
BRANCH_INDIRECT: 0
BRANCH_CONDITIONAL: 2.12
BRANCH_DIRECT_CALL: 0.00672
BRANCH_INDIRECT_CALL: 0
BRANCH_RETURN: 0.0062

LLC TOTAL        ACCESS:     938472 HIT:     133264 MISS:     805208
LLC LOAD         ACCESS:     162592 HIT:      28997 MISS:     133595
LLC RFO          ACCESS:     134763 HIT:      11537 MISS:     123226
LLC PREFETCH     ACCESS:     395046 HIT:      57264 MISS:     337782
LLC WRITE        ACCESS:     245156 HIT:      35397 MISS:     209759
LLC TRANSLATION  ACCESS:        915 HIT:         69 MISS:        846
LLC PREFETCH REQUESTED:          0 ISSUED:          0 USEFUL:          0 USELESS:          0
LLC AVERAGE MISS LATENCY: 895 cycles
cpu0_DTLB TOTAL        ACCESS:    6190133 HIT:    6120303 MISS:      69830
cpu0_DTLB LOAD         ACCESS:    6190133 HIT:    6120303 MISS:      69830
cpu0_DTLB RFO          ACCESS:          0 HIT:          0 MISS:          0
cpu0_DTLB PREFETCH     ACCESS:          0 HIT:          0 MISS:          0
cpu0_DTLB WRITE        ACCESS:          0 HIT:          0 MISS:          0
cpu0_DTLB TRANSLATION  ACCESS:          0 HIT:          0 MISS:          0
cpu0_DTLB PREFETCH REQUESTED:          0 ISSUED:          0 USEFUL:          0 USELESS:          0
cpu0_DTLB AVERAGE MISS LATENCY: 28.29 cycles
cpu0_ITLB TOTAL        ACCESS:       7286 HIT:       7179 MISS:        107
cpu0_ITLB LOAD         ACCESS:       7286 HIT:       7179 MISS:        107
cpu0_ITLB RFO          ACCESS:          0 HIT:          0 MISS:          0
cpu0_ITLB PREFETCH     ACCESS:          0 HIT:          0 MISS:          0
cpu0_ITLB WRITE        ACCESS:          0 HIT:          0 MISS:          0
cpu0_ITLB TRANSLATION  ACCESS:          0 HIT:          0 MISS:          0
cpu0_ITLB PREFETCH REQUESTED:          0 ISSUED:          0 USEFUL:          0 USELESS:          0
cpu0_ITLB AVERAGE MISS LATENCY: 255.5 cycles
cpu0_L1D TOTAL        ACCESS:   10330803 HIT:    6537651 MISS:    3793152
cpu0_L1D LOAD         ACCESS:    5515933 HIT:    3787938 MISS:    1727995
cpu0_L1D RFO          ACCESS:          0 HIT:          0 MISS:          0
cpu0_L1D PREFETCH     ACCESS:    2942743 HIT:    1677540 MISS:    1265203
cpu0_L1D WRITE        ACCESS:    1864257 HIT:    1067913 MISS:     796344
cpu0_L1D TRANSLATION  ACCESS:       7870 HIT:       4260 MISS:       3610
cpu0_L1D PREFETCH REQUESTED:   14450650 ISSUED:    2942747 USEFUL:     299694 USELESS:      20586
cpu0_L1D AVERAGE MISS LATENCY: 133.9 cycles
cpu0_L1I TOTAL        ACCESS:       9541 HIT:       7866 MISS:       1675
cpu0_L1I LOAD         ACCESS:       9541 HIT:       7866 MISS:       1675
cpu0_L1I RFO          ACCESS:          0 HIT:          0 MISS:          0
cpu0_L1I PREFETCH     ACCESS:          0 HIT:          0 MISS:          0
cpu0_L1I WRITE        ACCESS:          0 HIT:          0 MISS:          0
cpu0_L1I TRANSLATION  ACCESS:          0 HIT:          0 MISS:          0
cpu0_L1I PREFETCH REQUESTED:          0 ISSUED:          0 USEFUL:          0 USELESS:          0
cpu0_L1I AVERAGE MISS LATENCY: 447.2 cycles
cpu0_L2C TOTAL        ACCESS:    1238524 HIT:     501301 MISS:     737223
cpu0_L2C LOAD         ACCESS:     227407 HIT:      53296 MISS:     174111
cpu0_L2C RFO          ACCESS:     162737 HIT:      27926 MISS:     134811
cpu0_L2C PREFETCH     ACCESS:     543118 HIT:     115820 MISS:     427298
cpu0_L2C WRITE        ACCESS:     301948 HIT:     301860 MISS:         88
cpu0_L2C TRANSLATION  ACCESS:       3314 HIT:       2399 MISS:        915
cpu0_L2C PREFETCH REQUESTED:     222983 ISSUED:     222843 USEFUL:      33607 USELESS:      10802
cpu0_L2C AVERAGE MISS LATENCY: 912.8 cycles
cpu0_STLB TOTAL        ACCESS:      23590 HIT:      15687 MISS:       7903
cpu0_STLB LOAD         ACCESS:      23590 HIT:      15687 MISS:       7903
cpu0_STLB RFO          ACCESS:          0 HIT:          0 MISS:          0
cpu0_STLB PREFETCH     ACCESS:          0 HIT:          0 MISS:          0
cpu0_STLB WRITE        ACCESS:          0 HIT:          0 MISS:          0
cpu0_STLB TRANSLATION  ACCESS:          0 HIT:          0 MISS:          0
cpu0_STLB PREFETCH REQUESTED:          0 ISSUED:          0 USEFUL:          0 USELESS:          0
cpu0_STLB AVERAGE MISS LATENCY: 371.4 cycles

DRAM Statistics

Channel 0 RQ ROW_BUFFER_HIT:     157106
  ROW_BUFFER_MISS:     355337
 AVG DBUS CONGESTED CYCLE: 3.919
WQ ROW_BUFFER_HIT: Channel 0 
  ROW_BUFFER_MISS:      33764
  FULL:     187113
