WARNING: physical memory size is smaller than virtual memory size.

*** ChampSim Multicore Out-of-Order Simulator ***
Warmup Instructions: 25000000
Simulation Instructions: 25000000
Number of CPUs: 1
Page size: 4096

Off-chip DRAM Size: 4 GiB Channels: 1 Width: 64-bit Data Race: 800 MT/s
Heartbeat CPU 0 instructions: 10000002 cycles: 2500261 heartbeat IPC: 4 cumulative IPC: 4 (Simulation time: 00 hr 00 min 30 sec)
Heartbeat CPU 0 instructions: 20000002 cycles: 5000261 heartbeat IPC: 4 cumulative IPC: 4 (Simulation time: 00 hr 00 min 58 sec)
Warmup finished CPU 0 instructions: 25000002 cycles: 6254710 cumulative IPC: 3.997 (Simulation time: 00 hr 01 min 14 sec)
Warmup complete CPU 0 instructions: 25000002 cycles: 6254710 cumulative IPC: 3.997 (Simulation time: 00 hr 01 min 14 sec)
Heartbeat CPU 0 instructions: 30000001 cycles: 10013764 heartbeat IPC: 1.995 cumulative IPC: 1.33 (Simulation time: 00 hr 01 min 44 sec)
Heartbeat CPU 0 instructions: 40000003 cycles: 17008129 heartbeat IPC: 1.43 cumulative IPC: 1.395 (Simulation time: 00 hr 02 min 41 sec)
Heartbeat CPU 0 instructions: 50000002 cycles: 23994509 heartbeat IPC: 1.431 cumulative IPC: 1.409 (Simulation time: 00 hr 03 min 39 sec)
Simulation finished CPU 0 instructions: 25000000 cycles: 17739800 cumulative IPC: 1.409 (Simulation time: 00 hr 03 min 39 sec)
Simulation complete CPU 0 instructions: 25000000 cycles: 17739800 cumulative IPC: 1.409 (Simulation time: 00 hr 03 min 39 sec)

ChampSim completed all CPUs

=== Simulation ===
CPU 0 runs ./traces/623.xalancbmk_s-700B.champsimtrace.xz
Region of Interest Statistics

CPU 0 cumulative IPC: 1.409 instructions: 25000000 cycles: 17739800
CPU 0 Branch Prediction Accuracy: 93.12% MPKI: 17.91 Average ROB Occupancy at Mispredict: 20.2
Branch type MPKI
BRANCH_DIRECT_JUMP: 0.182
BRANCH_INDIRECT: 0.594
BRANCH_CONDITIONAL: 14.2
BRANCH_DIRECT_CALL: 0
BRANCH_INDIRECT_CALL: 0.61
BRANCH_RETURN: 2.37

LLC TOTAL        ACCESS:     793107 HIT:     739626 MISS:      53481
LLC LOAD         ACCESS:     550688 HIT:     545777 MISS:       4911
LLC RFO          ACCESS:      48944 HIT:      13339 MISS:      35605
LLC PREFETCH     ACCESS:     104991 HIT:      98330 MISS:       6661
LLC WRITE        ACCESS:      68177 HIT:      63100 MISS:       5077
LLC TRANSLATION  ACCESS:      20307 HIT:      19080 MISS:       1227
LLC PREFETCH REQUESTED:          0 ISSUED:          0 USEFUL:          0 USELESS:          0
LLC AVERAGE MISS LATENCY: 360 cycles
cpu0_DTLB TOTAL        ACCESS:    6826188 HIT:    5939881 MISS:     886307
cpu0_DTLB LOAD         ACCESS:    6826188 HIT:    5939881 MISS:     886307
cpu0_DTLB RFO          ACCESS:          0 HIT:          0 MISS:          0
cpu0_DTLB PREFETCH     ACCESS:          0 HIT:          0 MISS:          0
cpu0_DTLB WRITE        ACCESS:          0 HIT:          0 MISS:          0
cpu0_DTLB TRANSLATION  ACCESS:          0 HIT:          0 MISS:          0
cpu0_DTLB PREFETCH REQUESTED:          0 ISSUED:          0 USEFUL:          0 USELESS:          0
cpu0_DTLB AVERAGE MISS LATENCY: 5.093 cycles
cpu0_ITLB TOTAL        ACCESS:    1519539 HIT:    1481134 MISS:      38405
cpu0_ITLB LOAD         ACCESS:    1519539 HIT:    1481134 MISS:      38405
cpu0_ITLB RFO          ACCESS:          0 HIT:          0 MISS:          0
cpu0_ITLB PREFETCH     ACCESS:          0 HIT:          0 MISS:          0
cpu0_ITLB WRITE        ACCESS:          0 HIT:          0 MISS:          0
cpu0_ITLB TRANSLATION  ACCESS:          0 HIT:          0 MISS:          0
cpu0_ITLB PREFETCH REQUESTED:          0 ISSUED:          0 USEFUL:          0 USELESS:          0
cpu0_ITLB AVERAGE MISS LATENCY: 2.679 cycles
cpu0_L1D TOTAL        ACCESS:   12612334 HIT:    8539975 MISS:    4072359
cpu0_L1D LOAD         ACCESS:    5446061 HIT:    3075514 MISS:    2370547
cpu0_L1D RFO          ACCESS:          0 HIT:          0 MISS:          0
cpu0_L1D PREFETCH     ACCESS:    4356501 HIT:    2919832 MISS:    1436669
cpu0_L1D WRITE        ACCESS:    2777486 HIT:    2543829 MISS:     233657
cpu0_L1D TRANSLATION  ACCESS:      32286 HIT:        800 MISS:      31486
cpu0_L1D PREFETCH REQUESTED:    5927380 ISSUED:    4356501 USEFUL:      83706 USELESS:     174346
cpu0_L1D AVERAGE MISS LATENCY: 11.37 cycles
cpu0_L1I TOTAL        ACCESS:    1659461 HIT:    1507930 MISS:     151531
cpu0_L1I LOAD         ACCESS:    1659461 HIT:    1507930 MISS:     151531
cpu0_L1I RFO          ACCESS:          0 HIT:          0 MISS:          0
cpu0_L1I PREFETCH     ACCESS:          0 HIT:          0 MISS:          0
cpu0_L1I WRITE        ACCESS:          0 HIT:          0 MISS:          0
cpu0_L1I TRANSLATION  ACCESS:          0 HIT:          0 MISS:          0
cpu0_L1I PREFETCH REQUESTED:          0 ISSUED:          0 USEFUL:          0 USELESS:          0
cpu0_L1I AVERAGE MISS LATENCY: 9.801 cycles
cpu0_L2C TOTAL        ACCESS:    2077591 HIT:    1292405 MISS:     785186
cpu0_L2C LOAD         ACCESS:    1249031 HIT:     682640 MISS:     566391
cpu0_L2C RFO          ACCESS:      61751 HIT:      12773 MISS:      48978
cpu0_L2C PREFETCH     ACCESS:     628370 HIT:     478883 MISS:     149487
cpu0_L2C WRITE        ACCESS:     106953 HIT:     106930 MISS:         23
cpu0_L2C TRANSLATION  ACCESS:      31486 HIT:      11179 MISS:      20307
cpu0_L2C PREFETCH REQUESTED:     370396 ISSUED:     370353 USEFUL:      20663 USELESS:       3114
cpu0_L2C AVERAGE MISS LATENCY: 42.75 cycles
cpu0_STLB TOTAL        ACCESS:     545850 HIT:     513614 MISS:      32236
cpu0_STLB LOAD         ACCESS:     545850 HIT:     513614 MISS:      32236
cpu0_STLB RFO          ACCESS:          0 HIT:          0 MISS:          0
cpu0_STLB PREFETCH     ACCESS:          0 HIT:          0 MISS:          0
cpu0_STLB WRITE        ACCESS:          0 HIT:          0 MISS:          0
cpu0_STLB TRANSLATION  ACCESS:          0 HIT:          0 MISS:          0
cpu0_STLB PREFETCH REQUESTED:          0 ISSUED:          0 USEFUL:          0 USELESS:          0
cpu0_STLB AVERAGE MISS LATENCY: 42.29 cycles

DRAM Statistics

Channel 0 RQ ROW_BUFFER_HIT:      21543
  ROW_BUFFER_MISS:      26851
 AVG DBUS CONGESTED CYCLE: 3.955
WQ ROW_BUFFER_HIT: Channel 0 
  ROW_BUFFER_MISS:       8570
  FULL:      30356
