WARNING: physical memory size is smaller than virtual memory size.

*** ChampSim Multicore Out-of-Order Simulator ***
Warmup Instructions: 25000000
Simulation Instructions: 25000000
Number of CPUs: 1
Page size: 4096

Off-chip DRAM Size: 4 GiB Channels: 1 Width: 64-bit Data Race: 800 MT/s
Heartbeat CPU 0 instructions: 10000003 cycles: 2500088 heartbeat IPC: 4 cumulative IPC: 4 (Simulation time: 00 hr 00 min 28 sec)
Heartbeat CPU 0 instructions: 20000003 cycles: 5000088 heartbeat IPC: 4 cumulative IPC: 4 (Simulation time: 00 hr 00 min 56 sec)
Warmup finished CPU 0 instructions: 25000003 cycles: 6250089 cumulative IPC: 4 (Simulation time: 00 hr 01 min 10 sec)
Warmup complete CPU 0 instructions: 25000003 cycles: 6250089 cumulative IPC: 4 (Simulation time: 00 hr 01 min 10 sec)
Heartbeat CPU 0 instructions: 30000002 cycles: 12072976 heartbeat IPC: 1.414 cumulative IPC: 0.8587 (Simulation time: 00 hr 01 min 46 sec)
Heartbeat CPU 0 instructions: 40000002 cycles: 22284744 heartbeat IPC: 0.9793 cumulative IPC: 0.9355 (Simulation time: 00 hr 02 min 50 sec)
Heartbeat CPU 0 instructions: 50000000 cycles: 32472906 heartbeat IPC: 0.9815 cumulative IPC: 0.9534 (Simulation time: 00 hr 03 min 54 sec)
Simulation finished CPU 0 instructions: 25000001 cycles: 26222819 cumulative IPC: 0.9534 (Simulation time: 00 hr 03 min 54 sec)
Simulation complete CPU 0 instructions: 25000001 cycles: 26222819 cumulative IPC: 0.9534 (Simulation time: 00 hr 03 min 54 sec)

ChampSim completed all CPUs

=== Simulation ===
CPU 0 runs ./traces/623.xalancbmk_s-202B.champsimtrace.xz
Region of Interest Statistics

CPU 0 cumulative IPC: 0.9534 instructions: 25000001 cycles: 26222819
CPU 0 Branch Prediction Accuracy: 95.19% MPKI: 13.3 Average ROB Occupancy at Mispredict: 43.47
Branch type MPKI
BRANCH_DIRECT_JUMP: 0
BRANCH_INDIRECT: 0
BRANCH_CONDITIONAL: 13.3
BRANCH_DIRECT_CALL: 0
BRANCH_INDIRECT_CALL: 0
BRANCH_RETURN: 0

LLC TOTAL        ACCESS:     673685 HIT:     216647 MISS:     457038
LLC LOAD         ACCESS:      84462 HIT:      27168 MISS:      57294
LLC RFO          ACCESS:          0 HIT:          0 MISS:          0
LLC PREFETCH     ACCESS:     589193 HIT:     189478 MISS:     399715
LLC WRITE        ACCESS:          0 HIT:          0 MISS:          0
LLC TRANSLATION  ACCESS:         30 HIT:          1 MISS:         29
LLC PREFETCH REQUESTED:          0 ISSUED:          0 USEFUL:          0 USELESS:          0
LLC AVERAGE MISS LATENCY: 341.4 cycles
cpu0_DTLB TOTAL        ACCESS:    5680750 HIT:    5634527 MISS:      46223
cpu0_DTLB LOAD         ACCESS:    5680750 HIT:    5634527 MISS:      46223
cpu0_DTLB RFO          ACCESS:          0 HIT:          0 MISS:          0
cpu0_DTLB PREFETCH     ACCESS:          0 HIT:          0 MISS:          0
cpu0_DTLB WRITE        ACCESS:          0 HIT:          0 MISS:          0
cpu0_DTLB TRANSLATION  ACCESS:          0 HIT:          0 MISS:          0
cpu0_DTLB PREFETCH REQUESTED:          0 ISSUED:          0 USEFUL:          0 USELESS:          0
cpu0_DTLB AVERAGE MISS LATENCY: 1.051 cycles
cpu0_ITLB TOTAL        ACCESS:          0 HIT:          0 MISS:          0
cpu0_ITLB LOAD         ACCESS:          0 HIT:          0 MISS:          0
cpu0_ITLB RFO          ACCESS:          0 HIT:          0 MISS:          0
cpu0_ITLB PREFETCH     ACCESS:          0 HIT:          0 MISS:          0
cpu0_ITLB WRITE        ACCESS:          0 HIT:          0 MISS:          0
cpu0_ITLB TRANSLATION  ACCESS:          0 HIT:          0 MISS:          0
cpu0_ITLB PREFETCH REQUESTED:          0 ISSUED:          0 USEFUL:          0 USELESS:          0
cpu0_ITLB AVERAGE MISS LATENCY: -nan cycles
cpu0_L1D TOTAL        ACCESS:   12108968 HIT:    9244570 MISS:    2864398
cpu0_L1D LOAD         ACCESS:    6743157 HIT:    5070115 MISS:    1673042
cpu0_L1D RFO          ACCESS:          0 HIT:          0 MISS:          0
cpu0_L1D PREFETCH     ACCESS:    4922077 HIT:    3730752 MISS:    1191325
cpu0_L1D WRITE        ACCESS:     443625 HIT:     443625 MISS:          0
cpu0_L1D TRANSLATION  ACCESS:        109 HIT:         78 MISS:         31
cpu0_L1D PREFETCH REQUESTED:    6743189 ISSUED:    4922074 USEFUL:     113224 USELESS:      51256
cpu0_L1D AVERAGE MISS LATENCY: 17.38 cycles
cpu0_L1I TOTAL        ACCESS:          0 HIT:          0 MISS:          0
cpu0_L1I LOAD         ACCESS:          0 HIT:          0 MISS:          0
cpu0_L1I RFO          ACCESS:          0 HIT:          0 MISS:          0
cpu0_L1I PREFETCH     ACCESS:          0 HIT:          0 MISS:          0
cpu0_L1I WRITE        ACCESS:          0 HIT:          0 MISS:          0
cpu0_L1I TRANSLATION  ACCESS:          0 HIT:          0 MISS:          0
cpu0_L1I PREFETCH REQUESTED:          0 ISSUED:          0 USEFUL:          0 USELESS:          0
cpu0_L1I AVERAGE MISS LATENCY: -nan cycles
cpu0_L2C TOTAL        ACCESS:    1637959 HIT:     729748 MISS:     908211
cpu0_L2C LOAD         ACCESS:     515164 HIT:     359142 MISS:     156022
cpu0_L2C RFO          ACCESS:          0 HIT:          0 MISS:          0
cpu0_L2C PREFETCH     ACCESS:    1122764 HIT:     370605 MISS:     752159
cpu0_L2C WRITE        ACCESS:          0 HIT:          0 MISS:          0
cpu0_L2C TRANSLATION  ACCESS:         31 HIT:          1 MISS:         30
cpu0_L2C PREFETCH REQUESTED:     958202 ISSUED:     958202 USEFUL:     476380 USELESS:       4324
cpu0_L2C AVERAGE MISS LATENCY: 165.6 cycles
cpu0_STLB TOTAL        ACCESS:      10922 HIT:      10813 MISS:        109
cpu0_STLB LOAD         ACCESS:      10922 HIT:      10813 MISS:        109
cpu0_STLB RFO          ACCESS:          0 HIT:          0 MISS:          0
cpu0_STLB PREFETCH     ACCESS:          0 HIT:          0 MISS:          0
cpu0_STLB WRITE        ACCESS:          0 HIT:          0 MISS:          0
cpu0_STLB TRANSLATION  ACCESS:          0 HIT:          0 MISS:          0
cpu0_STLB PREFETCH REQUESTED:          0 ISSUED:          0 USEFUL:          0 USELESS:          0
cpu0_STLB AVERAGE MISS LATENCY: 317.2 cycles

DRAM Statistics

Channel 0 RQ ROW_BUFFER_HIT:     434414
  ROW_BUFFER_MISS:      21846
 AVG DBUS CONGESTED CYCLE: 3.922
WQ ROW_BUFFER_HIT: Channel 0 
  ROW_BUFFER_MISS:          0
  FULL:          0
