WARNING: physical memory size is smaller than virtual memory size.

*** ChampSim Multicore Out-of-Order Simulator ***
Warmup Instructions: 25000000
Simulation Instructions: 25000000
Number of CPUs: 1
Page size: 4096

Off-chip DRAM Size: 4 GiB Channels: 1 Width: 64-bit Data Race: 800 MT/s
Heartbeat CPU 0 instructions: 10000002 cycles: 2500210 heartbeat IPC: 4 cumulative IPC: 4 (Simulation time: 00 hr 00 min 31 sec)
Heartbeat CPU 0 instructions: 20000003 cycles: 5006997 heartbeat IPC: 3.989 cumulative IPC: 3.994 (Simulation time: 00 hr 01 min 03 sec)
Warmup finished CPU 0 instructions: 25000003 cycles: 6257015 cumulative IPC: 3.996 (Simulation time: 00 hr 01 min 19 sec)
Warmup complete CPU 0 instructions: 25000003 cycles: 6257015 cumulative IPC: 3.996 (Simulation time: 00 hr 01 min 19 sec)
Heartbeat CPU 0 instructions: 30000002 cycles: 9790797 heartbeat IPC: 2.09 cumulative IPC: 1.415 (Simulation time: 00 hr 01 min 48 sec)
Heartbeat CPU 0 instructions: 40000003 cycles: 16767944 heartbeat IPC: 1.433 cumulative IPC: 1.427 (Simulation time: 00 hr 02 min 45 sec)
Heartbeat CPU 0 instructions: 50000003 cycles: 21660002 heartbeat IPC: 2.044 cumulative IPC: 1.623 (Simulation time: 00 hr 03 min 33 sec)
Simulation finished CPU 0 instructions: 25000000 cycles: 15402988 cumulative IPC: 1.623 (Simulation time: 00 hr 03 min 33 sec)
Simulation complete CPU 0 instructions: 25000000 cycles: 15402988 cumulative IPC: 1.623 (Simulation time: 00 hr 03 min 33 sec)

ChampSim completed all CPUs

=== Simulation ===
CPU 0 runs ./traces/623.xalancbmk_s-325B.champsimtrace.xz
Region of Interest Statistics

CPU 0 cumulative IPC: 1.623 instructions: 25000000 cycles: 15402988
CPU 0 Branch Prediction Accuracy: 95.9% MPKI: 12.3 Average ROB Occupancy at Mispredict: 22.57
Branch type MPKI
BRANCH_DIRECT_JUMP: 0.119
BRANCH_INDIRECT: 0.389
BRANCH_CONDITIONAL: 9.83
BRANCH_DIRECT_CALL: 0
BRANCH_INDIRECT_CALL: 0.401
BRANCH_RETURN: 1.57

LLC TOTAL        ACCESS:     230093 HIT:     164755 MISS:      65338
LLC LOAD         ACCESS:     114034 HIT:     109643 MISS:       4391
LLC RFO          ACCESS:      33875 HIT:        846 MISS:      33029
LLC PREFETCH     ACCESS:      35910 HIT:      27699 MISS:       8211
LLC WRITE        ACCESS:      45739 HIT:      26314 MISS:      19425
LLC TRANSLATION  ACCESS:        535 HIT:        253 MISS:        282
LLC PREFETCH REQUESTED:          0 ISSUED:          0 USEFUL:          0 USELESS:          0
LLC AVERAGE MISS LATENCY: 296.4 cycles
cpu0_DTLB TOTAL        ACCESS:    7082894 HIT:    6517106 MISS:     565788
cpu0_DTLB LOAD         ACCESS:    7082894 HIT:    6517106 MISS:     565788
cpu0_DTLB RFO          ACCESS:          0 HIT:          0 MISS:          0
cpu0_DTLB PREFETCH     ACCESS:          0 HIT:          0 MISS:          0
cpu0_DTLB WRITE        ACCESS:          0 HIT:          0 MISS:          0
cpu0_DTLB TRANSLATION  ACCESS:          0 HIT:          0 MISS:          0
cpu0_DTLB PREFETCH REQUESTED:          0 ISSUED:          0 USEFUL:          0 USELESS:          0
cpu0_DTLB AVERAGE MISS LATENCY: 4.073 cycles
cpu0_ITLB TOTAL        ACCESS:     989149 HIT:     963900 MISS:      25249
cpu0_ITLB LOAD         ACCESS:     989149 HIT:     963900 MISS:      25249
cpu0_ITLB RFO          ACCESS:          0 HIT:          0 MISS:          0
cpu0_ITLB PREFETCH     ACCESS:          0 HIT:          0 MISS:          0
cpu0_ITLB WRITE        ACCESS:          0 HIT:          0 MISS:          0
cpu0_ITLB TRANSLATION  ACCESS:          0 HIT:          0 MISS:          0
cpu0_ITLB PREFETCH REQUESTED:          0 ISSUED:          0 USEFUL:          0 USELESS:          0
cpu0_ITLB AVERAGE MISS LATENCY: 2.181 cycles
cpu0_L1D TOTAL        ACCESS:   13460868 HIT:    8842345 MISS:    4618523
cpu0_L1D LOAD         ACCESS:    6152627 HIT:    3726481 MISS:    2426146
cpu0_L1D RFO          ACCESS:          0 HIT:          0 MISS:          0
cpu0_L1D PREFETCH     ACCESS:    5403998 HIT:    3397210 MISS:    2006788
cpu0_L1D WRITE        ACCESS:    1903634 HIT:    1718652 MISS:     184982
cpu0_L1D TRANSLATION  ACCESS:        609 HIT:          2 MISS:        607
cpu0_L1D PREFETCH REQUESTED:    6236887 ISSUED:    5403998 USEFUL:     152846 USELESS:     152666
cpu0_L1D AVERAGE MISS LATENCY: 6.801 cycles
cpu0_L1I TOTAL        ACCESS:    1079200 HIT:     983410 MISS:      95790
cpu0_L1I LOAD         ACCESS:    1079200 HIT:     983410 MISS:      95790
cpu0_L1I RFO          ACCESS:          0 HIT:          0 MISS:          0
cpu0_L1I PREFETCH     ACCESS:          0 HIT:          0 MISS:          0
cpu0_L1I WRITE        ACCESS:          0 HIT:          0 MISS:          0
cpu0_L1I TRANSLATION  ACCESS:          0 HIT:          0 MISS:          0
cpu0_L1I PREFETCH REQUESTED:          0 ISSUED:          0 USEFUL:          0 USELESS:          0
cpu0_L1I AVERAGE MISS LATENCY: 7.783 cycles
cpu0_L2C TOTAL        ACCESS:    1881662 HIT:    1671972 MISS:     209690
cpu0_L2C LOAD         ACCESS:     885226 HIT:     764519 MISS:     120707
cpu0_L2C RFO          ACCESS:      47698 HIT:      13787 MISS:      33911
cpu0_L2C PREFETCH     ACCESS:     854860 HIT:     800351 MISS:      54509
cpu0_L2C WRITE        ACCESS:      93271 HIT:      93243 MISS:         28
cpu0_L2C TRANSLATION  ACCESS:        607 HIT:         72 MISS:        535
cpu0_L2C PREFETCH REQUESTED:     549364 ISSUED:     549340 USEFUL:       9463 USELESS:       1936
cpu0_L2C AVERAGE MISS LATENCY: 109.5 cycles
cpu0_STLB TOTAL        ACCESS:     354814 HIT:     354205 MISS:        609
cpu0_STLB LOAD         ACCESS:     354814 HIT:     354205 MISS:        609
cpu0_STLB RFO          ACCESS:          0 HIT:          0 MISS:          0
cpu0_STLB PREFETCH     ACCESS:          0 HIT:          0 MISS:          0
cpu0_STLB WRITE        ACCESS:          0 HIT:          0 MISS:          0
cpu0_STLB TRANSLATION  ACCESS:          0 HIT:          0 MISS:          0
cpu0_STLB PREFETCH REQUESTED:          0 ISSUED:          0 USEFUL:          0 USELESS:          0
cpu0_STLB AVERAGE MISS LATENCY: 304.3 cycles

DRAM Statistics

Channel 0 RQ ROW_BUFFER_HIT:      21145
  ROW_BUFFER_MISS:      24756
 AVG DBUS CONGESTED CYCLE: 3.958
WQ ROW_BUFFER_HIT: Channel 0 
  ROW_BUFFER_MISS:       8594
  FULL:      32362
