WARNING: physical memory size is smaller than virtual memory size.

*** ChampSim Multicore Out-of-Order Simulator ***
Warmup Instructions: 25000000
Simulation Instructions: 25000000
Number of CPUs: 1
Page size: 4096

Off-chip DRAM Size: 4 GiB Channels: 1 Width: 64-bit Data Race: 800 MT/s
Heartbeat CPU 0 instructions: 10000001 cycles: 2500075 heartbeat IPC: 4 cumulative IPC: 4 (Simulation time: 00 hr 00 min 25 sec)
Heartbeat CPU 0 instructions: 20000001 cycles: 5000075 heartbeat IPC: 4 cumulative IPC: 4 (Simulation time: 00 hr 00 min 50 sec)
Warmup finished CPU 0 instructions: 25000001 cycles: 6250076 cumulative IPC: 4 (Simulation time: 00 hr 01 min 03 sec)
Warmup complete CPU 0 instructions: 25000001 cycles: 6250076 cumulative IPC: 4 (Simulation time: 00 hr 01 min 03 sec)
Heartbeat CPU 0 instructions: 30000001 cycles: 9475295 heartbeat IPC: 2.235 cumulative IPC: 1.55 (Simulation time: 00 hr 01 min 26 sec)
Heartbeat CPU 0 instructions: 40000002 cycles: 15800913 heartbeat IPC: 1.581 cumulative IPC: 1.571 (Simulation time: 00 hr 02 min 11 sec)
Heartbeat CPU 0 instructions: 50000000 cycles: 22157542 heartbeat IPC: 1.573 cumulative IPC: 1.572 (Simulation time: 00 hr 02 min 57 sec)
Simulation finished CPU 0 instructions: 25000002 cycles: 15907468 cumulative IPC: 1.572 (Simulation time: 00 hr 02 min 57 sec)
Simulation complete CPU 0 instructions: 25000002 cycles: 15907468 cumulative IPC: 1.572 (Simulation time: 00 hr 02 min 57 sec)

ChampSim completed all CPUs

=== Simulation ===
CPU 0 runs ./traces/623.xalancbmk_s-165B.champsimtrace.xz
Region of Interest Statistics

CPU 0 cumulative IPC: 1.572 instructions: 25000002 cycles: 15907468
CPU 0 Branch Prediction Accuracy: 96.52% MPKI: 9.703 Average ROB Occupancy at Mispredict: 51.08
Branch type MPKI
BRANCH_DIRECT_JUMP: 0
BRANCH_INDIRECT: 0
BRANCH_CONDITIONAL: 9.7
BRANCH_DIRECT_CALL: 0
BRANCH_INDIRECT_CALL: 0
BRANCH_RETURN: 0

LLC TOTAL        ACCESS:     516698 HIT:     417400 MISS:      99298
LLC LOAD         ACCESS:     233243 HIT:     188890 MISS:      44353
LLC RFO          ACCESS:         83 HIT:         56 MISS:         27
LLC PREFETCH     ACCESS:     283139 HIT:     228253 MISS:      54886
LLC WRITE        ACCESS:        201 HIT:        199 MISS:          2
LLC TRANSLATION  ACCESS:         32 HIT:          2 MISS:         30
LLC PREFETCH REQUESTED:          0 ISSUED:          0 USEFUL:          0 USELESS:          0
LLC AVERAGE MISS LATENCY: 249 cycles
cpu0_DTLB TOTAL        ACCESS:    6040840 HIT:    6007587 MISS:      33253
cpu0_DTLB LOAD         ACCESS:    6040840 HIT:    6007587 MISS:      33253
cpu0_DTLB RFO          ACCESS:          0 HIT:          0 MISS:          0
cpu0_DTLB PREFETCH     ACCESS:          0 HIT:          0 MISS:          0
cpu0_DTLB WRITE        ACCESS:          0 HIT:          0 MISS:          0
cpu0_DTLB TRANSLATION  ACCESS:          0 HIT:          0 MISS:          0
cpu0_DTLB PREFETCH REQUESTED:          0 ISSUED:          0 USEFUL:          0 USELESS:          0
cpu0_DTLB AVERAGE MISS LATENCY: 0.9875 cycles
cpu0_ITLB TOTAL        ACCESS:          0 HIT:          0 MISS:          0
cpu0_ITLB LOAD         ACCESS:          0 HIT:          0 MISS:          0
cpu0_ITLB RFO          ACCESS:          0 HIT:          0 MISS:          0
cpu0_ITLB PREFETCH     ACCESS:          0 HIT:          0 MISS:          0
cpu0_ITLB WRITE        ACCESS:          0 HIT:          0 MISS:          0
cpu0_ITLB TRANSLATION  ACCESS:          0 HIT:          0 MISS:          0
cpu0_ITLB PREFETCH REQUESTED:          0 ISSUED:          0 USEFUL:          0 USELESS:          0
cpu0_ITLB AVERAGE MISS LATENCY: -nan cycles
cpu0_L1D TOTAL        ACCESS:   12033956 HIT:    9582499 MISS:    2451457
cpu0_L1D LOAD         ACCESS:    6767651 HIT:    5250347 MISS:    1517304
cpu0_L1D RFO          ACCESS:          0 HIT:          0 MISS:          0
cpu0_L1D PREFETCH     ACCESS:    4938004 HIT:    4004364 MISS:     933640
cpu0_L1D WRITE        ACCESS:     328269 HIT:     327788 MISS:        481
cpu0_L1D TRANSLATION  ACCESS:         32 HIT:          0 MISS:         32
cpu0_L1D PREFETCH REQUESTED:    6767663 ISSUED:    4938003 USEFUL:      82536 USELESS:      40683
cpu0_L1D AVERAGE MISS LATENCY: 7.928 cycles
cpu0_L1I TOTAL        ACCESS:          0 HIT:          0 MISS:          0
cpu0_L1I LOAD         ACCESS:          0 HIT:          0 MISS:          0
cpu0_L1I RFO          ACCESS:          0 HIT:          0 MISS:          0
cpu0_L1I PREFETCH     ACCESS:          0 HIT:          0 MISS:          0
cpu0_L1I WRITE        ACCESS:          0 HIT:          0 MISS:          0
cpu0_L1I TRANSLATION  ACCESS:          0 HIT:          0 MISS:          0
cpu0_L1I PREFETCH REQUESTED:          0 ISSUED:          0 USEFUL:          0 USELESS:          0
cpu0_L1I AVERAGE MISS LATENCY: -nan cycles
cpu0_L2C TOTAL        ACCESS:     830856 HIT:     303264 MISS:     527592
cpu0_L2C LOAD         ACCESS:     392904 HIT:     158750 MISS:     234154
cpu0_L2C RFO          ACCESS:         99 HIT:         16 MISS:         83
cpu0_L2C PREFETCH     ACCESS:     437621 HIT:     144298 MISS:     293323
cpu0_L2C WRITE        ACCESS:        200 HIT:        200 MISS:          0
cpu0_L2C TRANSLATION  ACCESS:         32 HIT:          0 MISS:         32
cpu0_L2C PREFETCH REQUESTED:     314402 ISSUED:     314402 USEFUL:     219815 USELESS:       3229
cpu0_L2C AVERAGE MISS LATENCY: 66 cycles
cpu0_STLB TOTAL        ACCESS:       8783 HIT:       8751 MISS:         32
cpu0_STLB LOAD         ACCESS:       8783 HIT:       8751 MISS:         32
cpu0_STLB RFO          ACCESS:          0 HIT:          0 MISS:          0
cpu0_STLB PREFETCH     ACCESS:          0 HIT:          0 MISS:          0
cpu0_STLB WRITE        ACCESS:          0 HIT:          0 MISS:          0
cpu0_STLB TRANSLATION  ACCESS:          0 HIT:          0 MISS:          0
cpu0_STLB PREFETCH REQUESTED:          0 ISSUED:          0 USEFUL:          0 USELESS:          0
cpu0_STLB AVERAGE MISS LATENCY: 578.4 cycles

DRAM Statistics

Channel 0 RQ ROW_BUFFER_HIT:      93511
  ROW_BUFFER_MISS:       5785
 AVG DBUS CONGESTED CYCLE: 3.934
WQ ROW_BUFFER_HIT: Channel 0 
  ROW_BUFFER_MISS:         93
  FULL:         23
