WARNING: physical memory size is smaller than virtual memory size.

*** ChampSim Multicore Out-of-Order Simulator ***
Warmup Instructions: 25000000
Simulation Instructions: 25000000
Number of CPUs: 1
Page size: 4096

Off-chip DRAM Size: 4 GiB Channels: 1 Width: 64-bit Data Race: 800 MT/s
Heartbeat CPU 0 instructions: 10000002 cycles: 2511678 heartbeat IPC: 3.981 cumulative IPC: 3.981 (Simulation time: 00 hr 00 min 24 sec)
Heartbeat CPU 0 instructions: 20000000 cycles: 5012358 heartbeat IPC: 3.999 cumulative IPC: 3.99 (Simulation time: 00 hr 00 min 51 sec)
Warmup finished CPU 0 instructions: 25000000 cycles: 6262699 cumulative IPC: 3.992 (Simulation time: 00 hr 01 min 04 sec)
Warmup complete CPU 0 instructions: 25000000 cycles: 6262699 cumulative IPC: 3.992 (Simulation time: 00 hr 01 min 04 sec)
Heartbeat CPU 0 instructions: 30000003 cycles: 8072576 heartbeat IPC: 3.268 cumulative IPC: 2.763 (Simulation time: 00 hr 01 min 22 sec)
Heartbeat CPU 0 instructions: 40000003 cycles: 11753569 heartbeat IPC: 2.717 cumulative IPC: 2.732 (Simulation time: 00 hr 01 min 58 sec)
Heartbeat CPU 0 instructions: 50000002 cycles: 15392124 heartbeat IPC: 2.748 cumulative IPC: 2.738 (Simulation time: 00 hr 02 min 34 sec)
Simulation finished CPU 0 instructions: 25000002 cycles: 9129426 cumulative IPC: 2.738 (Simulation time: 00 hr 02 min 34 sec)
Simulation complete CPU 0 instructions: 25000002 cycles: 9129426 cumulative IPC: 2.738 (Simulation time: 00 hr 02 min 34 sec)

ChampSim completed all CPUs

=== Simulation ===
CPU 0 runs ./traces/625.x264_s-20B.champsimtrace.xz
Region of Interest Statistics

CPU 0 cumulative IPC: 2.738 instructions: 25000002 cycles: 9129426
CPU 0 Branch Prediction Accuracy: 92.14% MPKI: 3.331 Average ROB Occupancy at Mispredict: 127.2
Branch type MPKI
BRANCH_DIRECT_JUMP: 0.0004
BRANCH_INDIRECT: 0.00028
BRANCH_CONDITIONAL: 3.22
BRANCH_DIRECT_CALL: 4e-05
BRANCH_INDIRECT_CALL: 0.00696
BRANCH_RETURN: 0.104

LLC TOTAL        ACCESS:      56312 HIT:       5251 MISS:      51061
LLC LOAD         ACCESS:      12432 HIT:       1934 MISS:      10498
LLC RFO          ACCESS:       9387 HIT:        306 MISS:       9081
LLC PREFETCH     ACCESS:      22659 HIT:        996 MISS:      21663
LLC WRITE        ACCESS:      11215 HIT:       1928 MISS:       9287
LLC TRANSLATION  ACCESS:        619 HIT:         87 MISS:        532
LLC PREFETCH REQUESTED:          0 ISSUED:          0 USEFUL:          0 USELESS:          0
LLC AVERAGE MISS LATENCY: 342.6 cycles
cpu0_DTLB TOTAL        ACCESS:    4294851 HIT:    4125992 MISS:     168859
cpu0_DTLB LOAD         ACCESS:    4294851 HIT:    4125992 MISS:     168859
cpu0_DTLB RFO          ACCESS:          0 HIT:          0 MISS:          0
cpu0_DTLB PREFETCH     ACCESS:          0 HIT:          0 MISS:          0
cpu0_DTLB WRITE        ACCESS:          0 HIT:          0 MISS:          0
cpu0_DTLB TRANSLATION  ACCESS:          0 HIT:          0 MISS:          0
cpu0_DTLB PREFETCH REQUESTED:          0 ISSUED:          0 USEFUL:          0 USELESS:          0
cpu0_DTLB AVERAGE MISS LATENCY: 4.833 cycles
cpu0_ITLB TOTAL        ACCESS:     565199 HIT:     565199 MISS:          0
cpu0_ITLB LOAD         ACCESS:     565199 HIT:     565199 MISS:          0
cpu0_ITLB RFO          ACCESS:          0 HIT:          0 MISS:          0
cpu0_ITLB PREFETCH     ACCESS:          0 HIT:          0 MISS:          0
cpu0_ITLB WRITE        ACCESS:          0 HIT:          0 MISS:          0
cpu0_ITLB TRANSLATION  ACCESS:          0 HIT:          0 MISS:          0
cpu0_ITLB PREFETCH REQUESTED:          0 ISSUED:          0 USEFUL:          0 USELESS:          0
cpu0_ITLB AVERAGE MISS LATENCY: -nan cycles
cpu0_L1D TOTAL        ACCESS:    7828401 HIT:    7079675 MISS:     748726
cpu0_L1D LOAD         ACCESS:    3166994 HIT:    2797720 MISS:     369274
cpu0_L1D RFO          ACCESS:          0 HIT:          0 MISS:          0
cpu0_L1D PREFETCH     ACCESS:    2119603 HIT:    1859007 MISS:     260596
cpu0_L1D WRITE        ACCESS:    2541012 HIT:    2422914 MISS:     118098
cpu0_L1D TRANSLATION  ACCESS:        792 HIT:         34 MISS:        758
cpu0_L1D PREFETCH REQUESTED:    3221246 ISSUED:    2119612 USEFUL:      16776 USELESS:      75661
cpu0_L1D AVERAGE MISS LATENCY: 24.43 cycles
cpu0_L1I TOTAL        ACCESS:     681764 HIT:     599612 MISS:      82152
cpu0_L1I LOAD         ACCESS:     681764 HIT:     599612 MISS:      82152
cpu0_L1I RFO          ACCESS:          0 HIT:          0 MISS:          0
cpu0_L1I PREFETCH     ACCESS:          0 HIT:          0 MISS:          0
cpu0_L1I WRITE        ACCESS:          0 HIT:          0 MISS:          0
cpu0_L1I TRANSLATION  ACCESS:          0 HIT:          0 MISS:          0
cpu0_L1I PREFETCH REQUESTED:          0 ISSUED:          0 USEFUL:          0 USELESS:          0
cpu0_L1I AVERAGE MISS LATENCY: 16.61 cycles
cpu0_L2C TOTAL        ACCESS:     417461 HIT:     370638 MISS:      46823
cpu0_L2C LOAD         ACCESS:     186238 HIT:     173743 MISS:      12495
cpu0_L2C RFO          ACCESS:      58512 HIT:      49125 MISS:       9387
cpu0_L2C PREFETCH     ACCESS:     101326 HIT:      77164 MISS:      24162
cpu0_L2C WRITE        ACCESS:      70646 HIT:      70486 MISS:        160
cpu0_L2C TRANSLATION  ACCESS:        739 HIT:        120 MISS:        619
cpu0_L2C PREFETCH REQUESTED:       8901 ISSUED:       8901 USEFUL:       1715 USELESS:        423
cpu0_L2C AVERAGE MISS LATENCY: 390.1 cycles
cpu0_STLB TOTAL        ACCESS:      86067 HIT:      85275 MISS:        792
cpu0_STLB LOAD         ACCESS:      86067 HIT:      85275 MISS:        792
cpu0_STLB RFO          ACCESS:          0 HIT:          0 MISS:          0
cpu0_STLB PREFETCH     ACCESS:          0 HIT:          0 MISS:          0
cpu0_STLB WRITE        ACCESS:          0 HIT:          0 MISS:          0
cpu0_STLB TRANSLATION  ACCESS:          0 HIT:          0 MISS:          0
cpu0_STLB PREFETCH REQUESTED:          0 ISSUED:          0 USEFUL:          0 USELESS:          0
cpu0_STLB AVERAGE MISS LATENCY: 540.4 cycles

DRAM Statistics

Channel 0 RQ ROW_BUFFER_HIT:      15616
  ROW_BUFFER_MISS:      25496
 AVG DBUS CONGESTED CYCLE: 3.916
WQ ROW_BUFFER_HIT: Channel 0 
  ROW_BUFFER_MISS:       1979
  FULL:       9022
