WARNING: physical memory size is smaller than virtual memory size.

*** ChampSim Multicore Out-of-Order Simulator ***
Warmup Instructions: 25000000
Simulation Instructions: 25000000
Number of CPUs: 1
Page size: 4096

Off-chip DRAM Size: 4 GiB Channels: 1 Width: 64-bit Data Race: 800 MT/s
Heartbeat CPU 0 instructions: 10000002 cycles: 2558173 heartbeat IPC: 3.909 cumulative IPC: 3.909 (Simulation time: 00 hr 00 min 24 sec)
Heartbeat CPU 0 instructions: 20000003 cycles: 5121608 heartbeat IPC: 3.901 cumulative IPC: 3.905 (Simulation time: 00 hr 00 min 49 sec)
Warmup finished CPU 0 instructions: 25000001 cycles: 6398072 cumulative IPC: 3.907 (Simulation time: 00 hr 01 min 02 sec)
Warmup complete CPU 0 instructions: 25000001 cycles: 6398072 cumulative IPC: 3.907 (Simulation time: 00 hr 01 min 02 sec)
Heartbeat CPU 0 instructions: 30000001 cycles: 10863651 heartbeat IPC: 1.742 cumulative IPC: 1.12 (Simulation time: 00 hr 01 min 34 sec)
Heartbeat CPU 0 instructions: 40000000 cycles: 18079122 heartbeat IPC: 1.386 cumulative IPC: 1.284 (Simulation time: 00 hr 02 min 29 sec)
Heartbeat CPU 0 instructions: 50000003 cycles: 25561877 heartbeat IPC: 1.336 cumulative IPC: 1.305 (Simulation time: 00 hr 03 min 28 sec)
Simulation finished CPU 0 instructions: 25000002 cycles: 19163806 cumulative IPC: 1.305 (Simulation time: 00 hr 03 min 28 sec)
Simulation complete CPU 0 instructions: 25000002 cycles: 19163806 cumulative IPC: 1.305 (Simulation time: 00 hr 03 min 28 sec)

ChampSim completed all CPUs

=== Simulation ===
CPU 0 runs ./traces/627.cam4_s-490B.champsimtrace.xz
Region of Interest Statistics

CPU 0 cumulative IPC: 1.305 instructions: 25000002 cycles: 19163806
CPU 0 Branch Prediction Accuracy: 90.28% MPKI: 9.288 Average ROB Occupancy at Mispredict: 34.93
Branch type MPKI
BRANCH_DIRECT_JUMP: 0.00504
BRANCH_INDIRECT: 0
BRANCH_CONDITIONAL: 9.28
BRANCH_DIRECT_CALL: 0
BRANCH_INDIRECT_CALL: 0
BRANCH_RETURN: 0

LLC TOTAL        ACCESS:     606927 HIT:     417084 MISS:     189843
LLC LOAD         ACCESS:      74751 HIT:      47099 MISS:      27652
LLC RFO          ACCESS:     128223 HIT:      84277 MISS:      43946
LLC PREFETCH     ACCESS:     232512 HIT:     150382 MISS:      82130
LLC WRITE        ACCESS:     171409 HIT:     135322 MISS:      36087
LLC TRANSLATION  ACCESS:         32 HIT:          4 MISS:         28
LLC PREFETCH REQUESTED:          0 ISSUED:          0 USEFUL:          0 USELESS:          0
LLC AVERAGE MISS LATENCY: 636.5 cycles
cpu0_DTLB TOTAL        ACCESS:    4219207 HIT:    4196881 MISS:      22326
cpu0_DTLB LOAD         ACCESS:    4219207 HIT:    4196881 MISS:      22326
cpu0_DTLB RFO          ACCESS:          0 HIT:          0 MISS:          0
cpu0_DTLB PREFETCH     ACCESS:          0 HIT:          0 MISS:          0
cpu0_DTLB WRITE        ACCESS:          0 HIT:          0 MISS:          0
cpu0_DTLB TRANSLATION  ACCESS:          0 HIT:          0 MISS:          0
cpu0_DTLB PREFETCH REQUESTED:          0 ISSUED:          0 USEFUL:          0 USELESS:          0
cpu0_DTLB AVERAGE MISS LATENCY: 4.874 cycles
cpu0_ITLB TOTAL        ACCESS:       4694 HIT:       4694 MISS:          0
cpu0_ITLB LOAD         ACCESS:       4694 HIT:       4694 MISS:          0
cpu0_ITLB RFO          ACCESS:          0 HIT:          0 MISS:          0
cpu0_ITLB PREFETCH     ACCESS:          0 HIT:          0 MISS:          0
cpu0_ITLB WRITE        ACCESS:          0 HIT:          0 MISS:          0
cpu0_ITLB TRANSLATION  ACCESS:          0 HIT:          0 MISS:          0
cpu0_ITLB PREFETCH REQUESTED:          0 ISSUED:          0 USEFUL:          0 USELESS:          0
cpu0_ITLB AVERAGE MISS LATENCY: -nan cycles
cpu0_L1D TOTAL        ACCESS:    7411174 HIT:    5175789 MISS:    2235385
cpu0_L1D LOAD         ACCESS:    3369793 HIT:    2543941 MISS:     825852
cpu0_L1D RFO          ACCESS:          0 HIT:          0 MISS:          0
cpu0_L1D PREFETCH     ACCESS:    2404043 HIT:    1710233 MISS:     693810
cpu0_L1D WRITE        ACCESS:    1636874 HIT:     921219 MISS:     715655
cpu0_L1D TRANSLATION  ACCESS:        464 HIT:        396 MISS:         68
cpu0_L1D PREFETCH REQUESTED:    4420226 ISSUED:    2404040 USEFUL:     172805 USELESS:       3290
cpu0_L1D AVERAGE MISS LATENCY: 45.11 cycles
cpu0_L1I TOTAL        ACCESS:       5794 HIT:       4666 MISS:       1128
cpu0_L1I LOAD         ACCESS:       5794 HIT:       4666 MISS:       1128
cpu0_L1I RFO          ACCESS:          0 HIT:          0 MISS:          0
cpu0_L1I PREFETCH     ACCESS:          0 HIT:          0 MISS:          0
cpu0_L1I WRITE        ACCESS:          0 HIT:          0 MISS:          0
cpu0_L1I TRANSLATION  ACCESS:          0 HIT:          0 MISS:          0
cpu0_L1I PREFETCH REQUESTED:          0 ISSUED:          0 USEFUL:          0 USELESS:          0
cpu0_L1I AVERAGE MISS LATENCY: 172.1 cycles
cpu0_L2C TOTAL        ACCESS:     893192 HIT:     341064 MISS:     552128
cpu0_L2C LOAD         ACCESS:     141658 HIT:      39891 MISS:     101767
cpu0_L2C RFO          ACCESS:     130199 HIT:       1976 MISS:     128223
cpu0_L2C PREFETCH     ACCESS:     438969 HIT:     117430 MISS:     321539
cpu0_L2C WRITE        ACCESS:     182298 HIT:     181731 MISS:        567
cpu0_L2C TRANSLATION  ACCESS:         68 HIT:         36 MISS:         32
cpu0_L2C PREFETCH REQUESTED:     266708 ISSUED:     262861 USEFUL:      66848 USELESS:      11320
cpu0_L2C AVERAGE MISS LATENCY: 222.4 cycles
cpu0_STLB TOTAL        ACCESS:       7771 HIT:       7307 MISS:        464
cpu0_STLB LOAD         ACCESS:       7771 HIT:       7307 MISS:        464
cpu0_STLB RFO          ACCESS:          0 HIT:          0 MISS:          0
cpu0_STLB PREFETCH     ACCESS:          0 HIT:          0 MISS:          0
cpu0_STLB WRITE        ACCESS:          0 HIT:          0 MISS:          0
cpu0_STLB TRANSLATION  ACCESS:          0 HIT:          0 MISS:          0
cpu0_STLB PREFETCH REQUESTED:          0 ISSUED:          0 USEFUL:          0 USELESS:          0
cpu0_STLB AVERAGE MISS LATENCY: 283.9 cycles

DRAM Statistics

Channel 0 RQ ROW_BUFFER_HIT:      39744
  ROW_BUFFER_MISS:      91831
 AVG DBUS CONGESTED CYCLE: 3.929
WQ ROW_BUFFER_HIT: Channel 0 
  ROW_BUFFER_MISS:       8661
  FULL:      54065
