WARNING: physical memory size is smaller than virtual memory size.

*** ChampSim Multicore Out-of-Order Simulator ***
Warmup Instructions: 25000000
Simulation Instructions: 25000000
Number of CPUs: 1
Page size: 4096

Off-chip DRAM Size: 4 GiB Channels: 1 Width: 64-bit Data Race: 800 MT/s
Heartbeat CPU 0 instructions: 10000002 cycles: 2568882 heartbeat IPC: 3.893 cumulative IPC: 3.893 (Simulation time: 00 hr 00 min 29 sec)
Heartbeat CPU 0 instructions: 20000003 cycles: 5137837 heartbeat IPC: 3.893 cumulative IPC: 3.893 (Simulation time: 00 hr 00 min 59 sec)
Warmup finished CPU 0 instructions: 25000002 cycles: 6422236 cumulative IPC: 3.893 (Simulation time: 00 hr 01 min 13 sec)
Warmup complete CPU 0 instructions: 25000002 cycles: 6422236 cumulative IPC: 3.893 (Simulation time: 00 hr 01 min 13 sec)
Heartbeat CPU 0 instructions: 30000000 cycles: 10108413 heartbeat IPC: 2.012 cumulative IPC: 1.356 (Simulation time: 00 hr 01 min 45 sec)
Heartbeat CPU 0 instructions: 40000002 cycles: 17513494 heartbeat IPC: 1.35 cumulative IPC: 1.352 (Simulation time: 00 hr 02 min 52 sec)
Heartbeat CPU 0 instructions: 50000001 cycles: 24874784 heartbeat IPC: 1.358 cumulative IPC: 1.355 (Simulation time: 00 hr 04 min 01 sec)
Simulation finished CPU 0 instructions: 25000003 cycles: 18452550 cumulative IPC: 1.355 (Simulation time: 00 hr 04 min 01 sec)
Simulation complete CPU 0 instructions: 25000003 cycles: 18452550 cumulative IPC: 1.355 (Simulation time: 00 hr 04 min 01 sec)

ChampSim completed all CPUs

=== Simulation ===
CPU 0 runs ./traces/628.pop2_s-17B.champsimtrace.xz
Region of Interest Statistics

CPU 0 cumulative IPC: 1.355 instructions: 25000003 cycles: 18452550
CPU 0 Branch Prediction Accuracy: 96.47% MPKI: 4.044 Average ROB Occupancy at Mispredict: 141.9
Branch type MPKI
BRANCH_DIRECT_JUMP: 0.0513
BRANCH_INDIRECT: 0.00164
BRANCH_CONDITIONAL: 3.99
BRANCH_DIRECT_CALL: 0
BRANCH_INDIRECT_CALL: 0
BRANCH_RETURN: 0

LLC TOTAL        ACCESS:     468011 HIT:     250822 MISS:     217189
LLC LOAD         ACCESS:      86113 HIT:      52713 MISS:      33400
LLC RFO          ACCESS:      85702 HIT:      53833 MISS:      31869
LLC PREFETCH     ACCESS:     165564 HIT:      54955 MISS:     110609
LLC WRITE        ACCESS:     129181 HIT:      89058 MISS:      40123
LLC TRANSLATION  ACCESS:       1451 HIT:        263 MISS:       1188
LLC PREFETCH REQUESTED:          0 ISSUED:          0 USEFUL:          0 USELESS:          0
LLC AVERAGE MISS LATENCY: 487.3 cycles
cpu0_DTLB TOTAL        ACCESS:    5485095 HIT:    5435320 MISS:      49775
cpu0_DTLB LOAD         ACCESS:    5485095 HIT:    5435320 MISS:      49775
cpu0_DTLB RFO          ACCESS:          0 HIT:          0 MISS:          0
cpu0_DTLB PREFETCH     ACCESS:          0 HIT:          0 MISS:          0
cpu0_DTLB WRITE        ACCESS:          0 HIT:          0 MISS:          0
cpu0_DTLB TRANSLATION  ACCESS:          0 HIT:          0 MISS:          0
cpu0_DTLB PREFETCH REQUESTED:          0 ISSUED:          0 USEFUL:          0 USELESS:          0
cpu0_DTLB AVERAGE MISS LATENCY: 19.6 cycles
cpu0_ITLB TOTAL        ACCESS:      94451 HIT:      90764 MISS:       3687
cpu0_ITLB LOAD         ACCESS:      94451 HIT:      90764 MISS:       3687
cpu0_ITLB RFO          ACCESS:          0 HIT:          0 MISS:          0
cpu0_ITLB PREFETCH     ACCESS:          0 HIT:          0 MISS:          0
cpu0_ITLB WRITE        ACCESS:          0 HIT:          0 MISS:          0
cpu0_ITLB TRANSLATION  ACCESS:          0 HIT:          0 MISS:          0
cpu0_ITLB PREFETCH REQUESTED:          0 ISSUED:          0 USEFUL:          0 USELESS:          0
cpu0_ITLB AVERAGE MISS LATENCY: 1.507 cycles
cpu0_L1D TOTAL        ACCESS:    8980769 HIT:    6601712 MISS:    2379057
cpu0_L1D LOAD         ACCESS:    4560216 HIT:    3581918 MISS:     978298
cpu0_L1D RFO          ACCESS:          0 HIT:          0 MISS:          0
cpu0_L1D PREFETCH     ACCESS:    2528705 HIT:    1752713 MISS:     775992
cpu0_L1D WRITE        ACCESS:    1890166 HIT:    1267022 MISS:     623144
cpu0_L1D TRANSLATION  ACCESS:       1682 HIT:         59 MISS:       1623
cpu0_L1D PREFETCH REQUESTED:    4975437 ISSUED:    2528705 USEFUL:     233502 USELESS:      34989
cpu0_L1D AVERAGE MISS LATENCY: 33.48 cycles
cpu0_L1I TOTAL        ACCESS:     117201 HIT:      59788 MISS:      57413
cpu0_L1I LOAD         ACCESS:     117201 HIT:      59788 MISS:      57413
cpu0_L1I RFO          ACCESS:          0 HIT:          0 MISS:          0
cpu0_L1I PREFETCH     ACCESS:          0 HIT:          0 MISS:          0
cpu0_L1I WRITE        ACCESS:          0 HIT:          0 MISS:          0
cpu0_L1I TRANSLATION  ACCESS:          0 HIT:          0 MISS:          0
cpu0_L1I PREFETCH REQUESTED:          0 ISSUED:          0 USEFUL:          0 USELESS:          0
cpu0_L1I AVERAGE MISS LATENCY: 32.65 cycles
cpu0_L2C TOTAL        ACCESS:    1255674 HIT:     846586 MISS:     409088
cpu0_L2C LOAD         ACCESS:     260628 HIT:     165852 MISS:      94776
cpu0_L2C RFO          ACCESS:     162545 HIT:      76843 MISS:      85702
cpu0_L2C PREFETCH     ACCESS:     594597 HIT:     367530 MISS:     227067
cpu0_L2C WRITE        ACCESS:     236324 HIT:     236232 MISS:         92
cpu0_L2C TRANSLATION  ACCESS:       1580 HIT:        129 MISS:       1451
cpu0_L2C PREFETCH REQUESTED:     326111 ISSUED:     326110 USEFUL:      39576 USELESS:      12787
cpu0_L2C AVERAGE MISS LATENCY: 271.6 cycles
cpu0_STLB TOTAL        ACCESS:      21962 HIT:      20739 MISS:       1223
cpu0_STLB LOAD         ACCESS:      21962 HIT:      20739 MISS:       1223
cpu0_STLB RFO          ACCESS:          0 HIT:          0 MISS:          0
cpu0_STLB PREFETCH     ACCESS:          0 HIT:          0 MISS:          0
cpu0_STLB WRITE        ACCESS:          0 HIT:          0 MISS:          0
cpu0_STLB TRANSLATION  ACCESS:          0 HIT:          0 MISS:          0
cpu0_STLB PREFETCH REQUESTED:          0 ISSUED:          0 USEFUL:          0 USELESS:          0
cpu0_STLB AVERAGE MISS LATENCY: 1002 cycles

DRAM Statistics

Channel 0 RQ ROW_BUFFER_HIT:      65056
  ROW_BUFFER_MISS:     107453
 AVG DBUS CONGESTED CYCLE: 3.928
WQ ROW_BUFFER_HIT: Channel 0 
  ROW_BUFFER_MISS:       5396
  FULL:      55978
