WARNING: physical memory size is smaller than virtual memory size.

*** ChampSim Multicore Out-of-Order Simulator ***
Warmup Instructions: 25000000
Simulation Instructions: 25000000
Number of CPUs: 1
Page size: 4096

Off-chip DRAM Size: 4 GiB Channels: 1 Width: 64-bit Data Race: 800 MT/s
Heartbeat CPU 0 instructions: 10000001 cycles: 2500103 heartbeat IPC: 4 cumulative IPC: 4 (Simulation time: 00 hr 00 min 27 sec)
Heartbeat CPU 0 instructions: 20000001 cycles: 5000103 heartbeat IPC: 4 cumulative IPC: 4 (Simulation time: 00 hr 00 min 57 sec)
Warmup finished CPU 0 instructions: 25000001 cycles: 6250104 cumulative IPC: 4 (Simulation time: 00 hr 01 min 11 sec)
Warmup complete CPU 0 instructions: 25000001 cycles: 6250104 cumulative IPC: 4 (Simulation time: 00 hr 01 min 11 sec)
Heartbeat CPU 0 instructions: 30000001 cycles: 12700410 heartbeat IPC: 1.299 cumulative IPC: 0.7752 (Simulation time: 00 hr 02 min 02 sec)
Heartbeat CPU 0 instructions: 40000001 cycles: 25651265 heartbeat IPC: 0.7721 cumulative IPC: 0.7731 (Simulation time: 00 hr 03 min 48 sec)
Heartbeat CPU 0 instructions: 50000003 cycles: 38554302 heartbeat IPC: 0.775 cumulative IPC: 0.7739 (Simulation time: 00 hr 05 min 38 sec)
Simulation finished CPU 0 instructions: 25000002 cycles: 32304199 cumulative IPC: 0.7739 (Simulation time: 00 hr 05 min 38 sec)
Simulation complete CPU 0 instructions: 25000002 cycles: 32304199 cumulative IPC: 0.7739 (Simulation time: 00 hr 05 min 38 sec)

ChampSim completed all CPUs

=== Simulation ===
CPU 0 runs ./traces/649.fotonik3d_s-8225B.champsimtrace.xz
Region of Interest Statistics

CPU 0 cumulative IPC: 0.7739 instructions: 25000002 cycles: 32304199
CPU 0 Branch Prediction Accuracy: 99.98% MPKI: 0.00436 Average ROB Occupancy at Mispredict: 352
Branch type MPKI
BRANCH_DIRECT_JUMP: 0
BRANCH_INDIRECT: 0
BRANCH_CONDITIONAL: 0.00436
BRANCH_DIRECT_CALL: 0
BRANCH_INDIRECT_CALL: 0
BRANCH_RETURN: 0

LLC TOTAL        ACCESS:     552371 HIT:      61565 MISS:     490806
LLC LOAD         ACCESS:      57643 HIT:       1449 MISS:      56194
LLC RFO          ACCESS:        275 HIT:        175 MISS:        100
LLC PREFETCH     ACCESS:     274875 HIT:      59588 MISS:     215287
LLC WRITE        ACCESS:     219448 HIT:        348 MISS:     219100
LLC TRANSLATION  ACCESS:        130 HIT:          5 MISS:        125
LLC PREFETCH REQUESTED:          0 ISSUED:          0 USEFUL:          0 USELESS:          0
LLC AVERAGE MISS LATENCY: 345.4 cycles
cpu0_DTLB TOTAL        ACCESS:    5844227 HIT:    5808484 MISS:      35743
cpu0_DTLB LOAD         ACCESS:    5844227 HIT:    5808484 MISS:      35743
cpu0_DTLB RFO          ACCESS:          0 HIT:          0 MISS:          0
cpu0_DTLB PREFETCH     ACCESS:          0 HIT:          0 MISS:          0
cpu0_DTLB WRITE        ACCESS:          0 HIT:          0 MISS:          0
cpu0_DTLB TRANSLATION  ACCESS:          0 HIT:          0 MISS:          0
cpu0_DTLB PREFETCH REQUESTED:          0 ISSUED:          0 USEFUL:          0 USELESS:          0
cpu0_DTLB AVERAGE MISS LATENCY: 11.54 cycles
cpu0_ITLB TOTAL        ACCESS:          0 HIT:          0 MISS:          0
cpu0_ITLB LOAD         ACCESS:          0 HIT:          0 MISS:          0
cpu0_ITLB RFO          ACCESS:          0 HIT:          0 MISS:          0
cpu0_ITLB PREFETCH     ACCESS:          0 HIT:          0 MISS:          0
cpu0_ITLB WRITE        ACCESS:          0 HIT:          0 MISS:          0
cpu0_ITLB TRANSLATION  ACCESS:          0 HIT:          0 MISS:          0
cpu0_ITLB PREFETCH REQUESTED:          0 ISSUED:          0 USEFUL:          0 USELESS:          0
cpu0_ITLB AVERAGE MISS LATENCY: -nan cycles
cpu0_L1D TOTAL        ACCESS:   11938316 HIT:    9633395 MISS:    2304921
cpu0_L1D LOAD         ACCESS:    6172419 HIT:    4765727 MISS:    1406692
cpu0_L1D RFO          ACCESS:          0 HIT:          0 MISS:          0
cpu0_L1D PREFETCH     ACCESS:    4007329 HIT:    3110743 MISS:     896586
cpu0_L1D WRITE        ACCESS:    1755128 HIT:    1753616 MISS:       1512
cpu0_L1D TRANSLATION  ACCESS:       3440 HIT:       3309 MISS:        131
cpu0_L1D PREFETCH REQUESTED:    6242718 ISSUED:    4007325 USEFUL:     268462 USELESS:       2680
cpu0_L1D AVERAGE MISS LATENCY: 43.83 cycles
cpu0_L1I TOTAL        ACCESS:          0 HIT:          0 MISS:          0
cpu0_L1I LOAD         ACCESS:          0 HIT:          0 MISS:          0
cpu0_L1I RFO          ACCESS:          0 HIT:          0 MISS:          0
cpu0_L1I PREFETCH     ACCESS:          0 HIT:          0 MISS:          0
cpu0_L1I WRITE        ACCESS:          0 HIT:          0 MISS:          0
cpu0_L1I TRANSLATION  ACCESS:          0 HIT:          0 MISS:          0
cpu0_L1I PREFETCH REQUESTED:          0 ISSUED:          0 USEFUL:          0 USELESS:          0
cpu0_L1I AVERAGE MISS LATENCY: -nan cycles
cpu0_L2C TOTAL        ACCESS:     577334 HIT:     224671 MISS:     352663
cpu0_L2C LOAD         ACCESS:      62055 HIT:       1643 MISS:      60412
cpu0_L2C RFO          ACCESS:        275 HIT:          0 MISS:        275
cpu0_L2C PREFETCH     ACCESS:     295198 HIT:       3352 MISS:     291846
cpu0_L2C WRITE        ACCESS:     219675 HIT:     219675 MISS:          0
cpu0_L2C TRANSLATION  ACCESS:        131 HIT:          1 MISS:        130
cpu0_L2C PREFETCH REQUESTED:      24060 ISSUED:      24060 USEFUL:      17255 USELESS:        425
cpu0_L2C AVERAGE MISS LATENCY: 497.6 cycles
cpu0_STLB TOTAL        ACCESS:       5895 HIT:       2465 MISS:       3430
cpu0_STLB LOAD         ACCESS:       5895 HIT:       2465 MISS:       3430
cpu0_STLB RFO          ACCESS:          0 HIT:          0 MISS:          0
cpu0_STLB PREFETCH     ACCESS:          0 HIT:          0 MISS:          0
cpu0_STLB WRITE        ACCESS:          0 HIT:          0 MISS:          0
cpu0_STLB TRANSLATION  ACCESS:          0 HIT:          0 MISS:          0
cpu0_STLB PREFETCH REQUESTED:          0 ISSUED:          0 USEFUL:          0 USELESS:          0
cpu0_STLB AVERAGE MISS LATENCY: 228.2 cycles

DRAM Statistics

Channel 0 RQ ROW_BUFFER_HIT:      48369
  ROW_BUFFER_MISS:     223324
 AVG DBUS CONGESTED CYCLE: 3.91
WQ ROW_BUFFER_HIT: Channel 0 
  ROW_BUFFER_MISS:      59523
  FULL:     159725
