WARNING: physical memory size is smaller than virtual memory size.

*** ChampSim Multicore Out-of-Order Simulator ***
Warmup Instructions: 25000000
Simulation Instructions: 25000000
Number of CPUs: 1
Page size: 4096

Off-chip DRAM Size: 4 GiB Channels: 1 Width: 64-bit Data Race: 800 MT/s
Heartbeat CPU 0 instructions: 10000002 cycles: 2500102 heartbeat IPC: 4 cumulative IPC: 4 (Simulation time: 00 hr 00 min 31 sec)
Heartbeat CPU 0 instructions: 20000002 cycles: 5000102 heartbeat IPC: 4 cumulative IPC: 4 (Simulation time: 00 hr 01 min 03 sec)
Warmup finished CPU 0 instructions: 25000002 cycles: 6250103 cumulative IPC: 4 (Simulation time: 00 hr 01 min 19 sec)
Warmup complete CPU 0 instructions: 25000002 cycles: 6250103 cumulative IPC: 4 (Simulation time: 00 hr 01 min 19 sec)
Heartbeat CPU 0 instructions: 30000003 cycles: 12557397 heartbeat IPC: 1.323 cumulative IPC: 0.7927 (Simulation time: 00 hr 02 min 11 sec)
Heartbeat CPU 0 instructions: 40000001 cycles: 24976038 heartbeat IPC: 0.8052 cumulative IPC: 0.801 (Simulation time: 00 hr 03 min 47 sec)
Heartbeat CPU 0 instructions: 50000001 cycles: 37423608 heartbeat IPC: 0.8034 cumulative IPC: 0.802 (Simulation time: 00 hr 05 min 26 sec)
Simulation finished CPU 0 instructions: 25000003 cycles: 31173507 cumulative IPC: 0.802 (Simulation time: 00 hr 05 min 26 sec)
Simulation complete CPU 0 instructions: 25000003 cycles: 31173507 cumulative IPC: 0.802 (Simulation time: 00 hr 05 min 26 sec)

ChampSim completed all CPUs

=== Simulation ===
CPU 0 runs ./traces/649.fotonik3d_s-1176B.champsimtrace.xz
Region of Interest Statistics

CPU 0 cumulative IPC: 0.802 instructions: 25000003 cycles: 31173507
CPU 0 Branch Prediction Accuracy: 99.97% MPKI: 0.0044 Average ROB Occupancy at Mispredict: 352
Branch type MPKI
BRANCH_DIRECT_JUMP: 0
BRANCH_INDIRECT: 0
BRANCH_CONDITIONAL: 0.0044
BRANCH_DIRECT_CALL: 0
BRANCH_INDIRECT_CALL: 0
BRANCH_RETURN: 0

LLC TOTAL        ACCESS:     552663 HIT:      73867 MISS:     478796
LLC LOAD         ACCESS:      56851 HIT:       1938 MISS:      54913
LLC RFO          ACCESS:        330 HIT:        330 MISS:          0
LLC PREFETCH     ACCESS:     275888 HIT:      71062 MISS:     204826
LLC WRITE        ACCESS:     219448 HIT:        533 MISS:     218915
LLC TRANSLATION  ACCESS:        146 HIT:          4 MISS:        142
LLC PREFETCH REQUESTED:          0 ISSUED:          0 USEFUL:          0 USELESS:          0
LLC AVERAGE MISS LATENCY: 326.5 cycles
cpu0_DTLB TOTAL        ACCESS:    5843385 HIT:    5808754 MISS:      34631
cpu0_DTLB LOAD         ACCESS:    5843385 HIT:    5808754 MISS:      34631
cpu0_DTLB RFO          ACCESS:          0 HIT:          0 MISS:          0
cpu0_DTLB PREFETCH     ACCESS:          0 HIT:          0 MISS:          0
cpu0_DTLB WRITE        ACCESS:          0 HIT:          0 MISS:          0
cpu0_DTLB TRANSLATION  ACCESS:          0 HIT:          0 MISS:          0
cpu0_DTLB PREFETCH REQUESTED:          0 ISSUED:          0 USEFUL:          0 USELESS:          0
cpu0_DTLB AVERAGE MISS LATENCY: 13.12 cycles
cpu0_ITLB TOTAL        ACCESS:          0 HIT:          0 MISS:          0
cpu0_ITLB LOAD         ACCESS:          0 HIT:          0 MISS:          0
cpu0_ITLB RFO          ACCESS:          0 HIT:          0 MISS:          0
cpu0_ITLB PREFETCH     ACCESS:          0 HIT:          0 MISS:          0
cpu0_ITLB WRITE        ACCESS:          0 HIT:          0 MISS:          0
cpu0_ITLB TRANSLATION  ACCESS:          0 HIT:          0 MISS:          0
cpu0_ITLB PREFETCH REQUESTED:          0 ISSUED:          0 USEFUL:          0 USELESS:          0
cpu0_ITLB AVERAGE MISS LATENCY: -nan cycles
cpu0_L1D TOTAL        ACCESS:   11964969 HIT:    9759929 MISS:    2205040
cpu0_L1D LOAD         ACCESS:    6187677 HIT:    4849657 MISS:    1338020
cpu0_L1D RFO          ACCESS:          0 HIT:          0 MISS:          0
cpu0_L1D PREFETCH     ACCESS:    4018707 HIT:    3153005 MISS:     865702
cpu0_L1D WRITE        ACCESS:    1755130 HIT:    1753961 MISS:       1169
cpu0_L1D TRANSLATION  ACCESS:       3455 HIT:       3306 MISS:        149
cpu0_L1D PREFETCH REQUESTED:    6205767 ISSUED:    4018707 USEFUL:     269791 USELESS:       2882
cpu0_L1D AVERAGE MISS LATENCY: 42.96 cycles
cpu0_L1I TOTAL        ACCESS:          0 HIT:          0 MISS:          0
cpu0_L1I LOAD         ACCESS:          0 HIT:          0 MISS:          0
cpu0_L1I RFO          ACCESS:          0 HIT:          0 MISS:          0
cpu0_L1I PREFETCH     ACCESS:          0 HIT:          0 MISS:          0
cpu0_L1I WRITE        ACCESS:          0 HIT:          0 MISS:          0
cpu0_L1I TRANSLATION  ACCESS:          0 HIT:          0 MISS:          0
cpu0_L1I PREFETCH REQUESTED:          0 ISSUED:          0 USEFUL:          0 USELESS:          0
cpu0_L1I AVERAGE MISS LATENCY: -nan cycles
cpu0_L2C TOTAL        ACCESS:     575072 HIT:     224114 MISS:     350958
cpu0_L2C LOAD         ACCESS:      60675 HIT:       1244 MISS:      59431
cpu0_L2C RFO          ACCESS:        330 HIT:          0 MISS:        330
cpu0_L2C PREFETCH     ACCESS:     294267 HIT:       3216 MISS:     291051
cpu0_L2C WRITE        ACCESS:     219654 HIT:     219654 MISS:          0
cpu0_L2C TRANSLATION  ACCESS:        146 HIT:          0 MISS:        146
cpu0_L2C PREFETCH REQUESTED:      21578 ISSUED:      21578 USEFUL:      15342 USELESS:        355
cpu0_L2C AVERAGE MISS LATENCY: 463.3 cycles
cpu0_STLB TOTAL        ACCESS:       5803 HIT:       2367 MISS:       3436
cpu0_STLB LOAD         ACCESS:       5803 HIT:       2367 MISS:       3436
cpu0_STLB RFO          ACCESS:          0 HIT:          0 MISS:          0
cpu0_STLB PREFETCH     ACCESS:          0 HIT:          0 MISS:          0
cpu0_STLB WRITE        ACCESS:          0 HIT:          0 MISS:          0
cpu0_STLB TRANSLATION  ACCESS:          0 HIT:          0 MISS:          0
cpu0_STLB PREFETCH REQUESTED:          0 ISSUED:          0 USEFUL:          0 USELESS:          0
cpu0_STLB AVERAGE MISS LATENCY: 236 cycles

DRAM Statistics

Channel 0 RQ ROW_BUFFER_HIT:      47797
  ROW_BUFFER_MISS:     212061
 AVG DBUS CONGESTED CYCLE: 3.913
WQ ROW_BUFFER_HIT: Channel 0 
  ROW_BUFFER_MISS:      60921
  FULL:     158115
