WARNING: physical memory size is smaller than virtual memory size.

*** ChampSim Multicore Out-of-Order Simulator ***
Warmup Instructions: 25000000
Simulation Instructions: 25000000
Number of CPUs: 1
Page size: 4096

Off-chip DRAM Size: 4 GiB Channels: 1 Width: 64-bit Data Race: 800 MT/s
Heartbeat CPU 0 instructions: 10000000 cycles: 2500125 heartbeat IPC: 4 cumulative IPC: 4 (Simulation time: 00 hr 00 min 30 sec)
Heartbeat CPU 0 instructions: 20000002 cycles: 5000147 heartbeat IPC: 4 cumulative IPC: 4 (Simulation time: 00 hr 00 min 59 sec)
Warmup finished CPU 0 instructions: 25000002 cycles: 6250148 cumulative IPC: 4 (Simulation time: 00 hr 01 min 14 sec)
Warmup complete CPU 0 instructions: 25000002 cycles: 6250148 cumulative IPC: 4 (Simulation time: 00 hr 01 min 14 sec)
Heartbeat CPU 0 instructions: 30000000 cycles: 13767860 heartbeat IPC: 1.141 cumulative IPC: 0.6651 (Simulation time: 00 hr 02 min 13 sec)
Heartbeat CPU 0 instructions: 40000002 cycles: 29000899 heartbeat IPC: 0.6565 cumulative IPC: 0.6593 (Simulation time: 00 hr 04 min 06 sec)
Heartbeat CPU 0 instructions: 50000000 cycles: 44136532 heartbeat IPC: 0.6607 cumulative IPC: 0.6599 (Simulation time: 00 hr 05 min 58 sec)
Simulation finished CPU 0 instructions: 25000002 cycles: 37886386 cumulative IPC: 0.6599 (Simulation time: 00 hr 05 min 58 sec)
Simulation complete CPU 0 instructions: 25000002 cycles: 37886386 cumulative IPC: 0.6599 (Simulation time: 00 hr 05 min 58 sec)

ChampSim completed all CPUs

=== Simulation ===
CPU 0 runs ./traces/649.fotonik3d_s-7084B.champsimtrace.xz
Region of Interest Statistics

CPU 0 cumulative IPC: 0.6599 instructions: 25000002 cycles: 37886386
CPU 0 Branch Prediction Accuracy: 99.19% MPKI: 0.05616 Average ROB Occupancy at Mispredict: 352
Branch type MPKI
BRANCH_DIRECT_JUMP: 0
BRANCH_INDIRECT: 0
BRANCH_CONDITIONAL: 0.0562
BRANCH_DIRECT_CALL: 0
BRANCH_INDIRECT_CALL: 0
BRANCH_RETURN: 0

LLC TOTAL        ACCESS:     551471 HIT:       1702 MISS:     549769
LLC LOAD         ACCESS:      46056 HIT:         31 MISS:      46025
LLC RFO          ACCESS:          0 HIT:          0 MISS:          0
LLC PREFETCH     ACCESS:     375022 HIT:        122 MISS:     374900
LLC WRITE        ACCESS:     129835 HIT:       1491 MISS:     128344
LLC TRANSLATION  ACCESS:        558 HIT:         58 MISS:        500
LLC PREFETCH REQUESTED:          0 ISSUED:          0 USEFUL:          0 USELESS:          0
LLC AVERAGE MISS LATENCY: 684.7 cycles
cpu0_DTLB TOTAL        ACCESS:    6189026 HIT:    6163951 MISS:      25075
cpu0_DTLB LOAD         ACCESS:    6189026 HIT:    6163951 MISS:      25075
cpu0_DTLB RFO          ACCESS:          0 HIT:          0 MISS:          0
cpu0_DTLB PREFETCH     ACCESS:          0 HIT:          0 MISS:          0
cpu0_DTLB WRITE        ACCESS:          0 HIT:          0 MISS:          0
cpu0_DTLB TRANSLATION  ACCESS:          0 HIT:          0 MISS:          0
cpu0_DTLB PREFETCH REQUESTED:          0 ISSUED:          0 USEFUL:          0 USELESS:          0
cpu0_DTLB AVERAGE MISS LATENCY: 55.78 cycles
cpu0_ITLB TOTAL        ACCESS:          0 HIT:          0 MISS:          0
cpu0_ITLB LOAD         ACCESS:          0 HIT:          0 MISS:          0
cpu0_ITLB RFO          ACCESS:          0 HIT:          0 MISS:          0
cpu0_ITLB PREFETCH     ACCESS:          0 HIT:          0 MISS:          0
cpu0_ITLB WRITE        ACCESS:          0 HIT:          0 MISS:          0
cpu0_ITLB TRANSLATION  ACCESS:          0 HIT:          0 MISS:          0
cpu0_ITLB PREFETCH REQUESTED:          0 ISSUED:          0 USEFUL:          0 USELESS:          0
cpu0_ITLB AVERAGE MISS LATENCY: -nan cycles
cpu0_L1D TOTAL        ACCESS:   10757891 HIT:    8984638 MISS:    1773253
cpu0_L1D LOAD         ACCESS:    6521008 HIT:    5798143 MISS:     722865
cpu0_L1D RFO          ACCESS:          0 HIT:          0 MISS:          0
cpu0_L1D PREFETCH     ACCESS:    3001812 HIT:    1958238 MISS:    1043574
cpu0_L1D WRITE        ACCESS:    1228237 HIT:    1228233 MISS:          4
cpu0_L1D TRANSLATION  ACCESS:       6834 HIT:         24 MISS:       6810
cpu0_L1D PREFETCH REQUESTED:    6854108 ISSUED:    3001810 USEFUL:     337748 USELESS:      13747
cpu0_L1D AVERAGE MISS LATENCY: 122.4 cycles
cpu0_L1I TOTAL        ACCESS:          0 HIT:          0 MISS:          0
cpu0_L1I LOAD         ACCESS:          0 HIT:          0 MISS:          0
cpu0_L1I RFO          ACCESS:          0 HIT:          0 MISS:          0
cpu0_L1I PREFETCH     ACCESS:          0 HIT:          0 MISS:          0
cpu0_L1I WRITE        ACCESS:          0 HIT:          0 MISS:          0
cpu0_L1I TRANSLATION  ACCESS:          0 HIT:          0 MISS:          0
cpu0_L1I PREFETCH REQUESTED:          0 ISSUED:          0 USEFUL:          0 USELESS:          0
cpu0_L1I AVERAGE MISS LATENCY: -nan cycles
cpu0_L2C TOTAL        ACCESS:     685409 HIT:     246003 MISS:     439406
cpu0_L2C LOAD         ACCESS:      85909 HIT:      39194 MISS:      46715
cpu0_L2C RFO          ACCESS:          4 HIT:          4 MISS:          0
cpu0_L2C PREFETCH     ACCESS:     462111 HIT:      70041 MISS:     392070
cpu0_L2C WRITE        ACCESS:     130575 HIT:     130512 MISS:         63
cpu0_L2C TRANSLATION  ACCESS:       6810 HIT:       6252 MISS:        558
cpu0_L2C PREFETCH REQUESTED:     110614 ISSUED:     110614 USEFUL:      39811 USELESS:       3302
cpu0_L2C AVERAGE MISS LATENCY: 875.3 cycles
cpu0_STLB TOTAL        ACCESS:      13924 HIT:       7102 MISS:       6822
cpu0_STLB LOAD         ACCESS:      13924 HIT:       7102 MISS:       6822
cpu0_STLB RFO          ACCESS:          0 HIT:          0 MISS:          0
cpu0_STLB PREFETCH     ACCESS:          0 HIT:          0 MISS:          0
cpu0_STLB WRITE        ACCESS:          0 HIT:          0 MISS:          0
cpu0_STLB TRANSLATION  ACCESS:          0 HIT:          0 MISS:          0
cpu0_STLB PREFETCH REQUESTED:          0 ISSUED:          0 USEFUL:          0 USELESS:          0
cpu0_STLB AVERAGE MISS LATENCY: 268.5 cycles

DRAM Statistics

Channel 0 RQ ROW_BUFFER_HIT:     177438
  ROW_BUFFER_MISS:     243970
 AVG DBUS CONGESTED CYCLE: 3.856
WQ ROW_BUFFER_HIT: Channel 0 
  ROW_BUFFER_MISS:      30649
  FULL:      99018
