WARNING: physical memory size is smaller than virtual memory size.

*** ChampSim Multicore Out-of-Order Simulator ***
Warmup Instructions: 25000000
Simulation Instructions: 25000000
Number of CPUs: 1
Page size: 4096

Off-chip DRAM Size: 4 GiB Channels: 1 Width: 64-bit Data Race: 800 MT/s
Heartbeat CPU 0 instructions: 10000000 cycles: 3155219 heartbeat IPC: 3.169 cumulative IPC: 3.169 (Simulation time: 00 hr 00 min 46 sec)
Heartbeat CPU 0 instructions: 20000001 cycles: 6311164 heartbeat IPC: 3.169 cumulative IPC: 3.169 (Simulation time: 00 hr 01 min 35 sec)
Warmup finished CPU 0 instructions: 25000001 cycles: 7888721 cumulative IPC: 3.169 (Simulation time: 00 hr 01 min 58 sec)
Warmup complete CPU 0 instructions: 25000001 cycles: 7888721 cumulative IPC: 3.169 (Simulation time: 00 hr 01 min 58 sec)
Heartbeat CPU 0 instructions: 30000002 cycles: 20309762 heartbeat IPC: 0.7144 cumulative IPC: 0.4025 (Simulation time: 00 hr 03 min 41 sec)
Heartbeat CPU 0 instructions: 40000000 cycles: 45160235 heartbeat IPC: 0.4024 cumulative IPC: 0.4025 (Simulation time: 00 hr 07 min 08 sec)
Heartbeat CPU 0 instructions: 50000000 cycles: 70019716 heartbeat IPC: 0.4023 cumulative IPC: 0.4024 (Simulation time: 00 hr 10 min 33 sec)
Simulation finished CPU 0 instructions: 25000003 cycles: 62130997 cumulative IPC: 0.4024 (Simulation time: 00 hr 10 min 33 sec)
Simulation complete CPU 0 instructions: 25000003 cycles: 62130997 cumulative IPC: 0.4024 (Simulation time: 00 hr 10 min 33 sec)

ChampSim completed all CPUs

=== Simulation ===
CPU 0 runs ./traces/649.fotonik3d_s-10881B.champsimtrace.xz
Region of Interest Statistics

CPU 0 cumulative IPC: 0.4024 instructions: 25000003 cycles: 62130997
CPU 0 Branch Prediction Accuracy: 93.33% MPKI: 0.8021 Average ROB Occupancy at Mispredict: 352
Branch type MPKI
BRANCH_DIRECT_JUMP: 0
BRANCH_INDIRECT: 0
BRANCH_CONDITIONAL: 0.802
BRANCH_DIRECT_CALL: 0
BRANCH_INDIRECT_CALL: 0
BRANCH_RETURN: 0

LLC TOTAL        ACCESS:     836787 HIT:      22076 MISS:     814711
LLC LOAD         ACCESS:     278807 HIT:        730 MISS:     278077
LLC RFO          ACCESS:          0 HIT:          0 MISS:          0
LLC PREFETCH     ACCESS:     302765 HIT:       9410 MISS:     293355
LLC WRITE        ACCESS:     242774 HIT:      11421 MISS:     231353
LLC TRANSLATION  ACCESS:      12441 HIT:        515 MISS:      11926
LLC PREFETCH REQUESTED:          0 ISSUED:          0 USEFUL:          0 USELESS:          0
LLC AVERAGE MISS LATENCY: 698.6 cycles
cpu0_DTLB TOTAL        ACCESS:    9223577 HIT:    8955564 MISS:     268013
cpu0_DTLB LOAD         ACCESS:    9223577 HIT:    8955564 MISS:     268013
cpu0_DTLB RFO          ACCESS:          0 HIT:          0 MISS:          0
cpu0_DTLB PREFETCH     ACCESS:          0 HIT:          0 MISS:          0
cpu0_DTLB WRITE        ACCESS:          0 HIT:          0 MISS:          0
cpu0_DTLB TRANSLATION  ACCESS:          0 HIT:          0 MISS:          0
cpu0_DTLB PREFETCH REQUESTED:          0 ISSUED:          0 USEFUL:          0 USELESS:          0
cpu0_DTLB AVERAGE MISS LATENCY: 72.39 cycles
cpu0_ITLB TOTAL        ACCESS:          0 HIT:          0 MISS:          0
cpu0_ITLB LOAD         ACCESS:          0 HIT:          0 MISS:          0
cpu0_ITLB RFO          ACCESS:          0 HIT:          0 MISS:          0
cpu0_ITLB PREFETCH     ACCESS:          0 HIT:          0 MISS:          0
cpu0_ITLB WRITE        ACCESS:          0 HIT:          0 MISS:          0
cpu0_ITLB TRANSLATION  ACCESS:          0 HIT:          0 MISS:          0
cpu0_ITLB PREFETCH REQUESTED:          0 ISSUED:          0 USEFUL:          0 USELESS:          0
cpu0_ITLB AVERAGE MISS LATENCY: -nan cycles
cpu0_L1D TOTAL        ACCESS:   12301666 HIT:   10757164 MISS:    1544502
cpu0_L1D LOAD         ACCESS:    8954003 HIT:    8042548 MISS:     911455
cpu0_L1D RFO          ACCESS:          0 HIT:          0 MISS:          0
cpu0_L1D PREFETCH     ACCESS:    1659809 HIT:    1110904 MISS:     548905
cpu0_L1D WRITE        ACCESS:    1602830 HIT:    1602830 MISS:          0
cpu0_L1D TRANSLATION  ACCESS:      85024 HIT:        882 MISS:      84142
cpu0_L1D PREFETCH REQUESTED:   10762007 ISSUED:    1659805 USEFUL:     182474 USELESS:      84907
cpu0_L1D AVERAGE MISS LATENCY: 291.7 cycles
cpu0_L1I TOTAL        ACCESS:          0 HIT:          0 MISS:          0
cpu0_L1I LOAD         ACCESS:          0 HIT:          0 MISS:          0
cpu0_L1I RFO          ACCESS:          0 HIT:          0 MISS:          0
cpu0_L1I PREFETCH     ACCESS:          0 HIT:          0 MISS:          0
cpu0_L1I WRITE        ACCESS:          0 HIT:          0 MISS:          0
cpu0_L1I TRANSLATION  ACCESS:          0 HIT:          0 MISS:          0
cpu0_L1I PREFETCH REQUESTED:          0 ISSUED:          0 USEFUL:          0 USELESS:          0
cpu0_L1I AVERAGE MISS LATENCY: -nan cycles
cpu0_L2C TOTAL        ACCESS:     965181 HIT:     367591 MISS:     597590
cpu0_L2C LOAD         ACCESS:     298565 HIT:      19686 MISS:     278879
cpu0_L2C RFO          ACCESS:          0 HIT:          0 MISS:          0
cpu0_L2C PREFETCH     ACCESS:     339592 HIT:      33322 MISS:     306270
cpu0_L2C WRITE        ACCESS:     242882 HIT:     242882 MISS:          0
cpu0_L2C TRANSLATION  ACCESS:      84142 HIT:      71701 MISS:      12441
cpu0_L2C PREFETCH REQUESTED:      72174 ISSUED:      72174 USEFUL:      34787 USELESS:      16614
cpu0_L2C AVERAGE MISS LATENCY: 969.9 cycles
cpu0_STLB TOTAL        ACCESS:     114817 HIT:      29924 MISS:      84893
cpu0_STLB LOAD         ACCESS:     114817 HIT:      29924 MISS:      84893
cpu0_STLB RFO          ACCESS:          0 HIT:          0 MISS:          0
cpu0_STLB PREFETCH     ACCESS:          0 HIT:          0 MISS:          0
cpu0_STLB WRITE        ACCESS:          0 HIT:          0 MISS:          0
cpu0_STLB TRANSLATION  ACCESS:          0 HIT:          0 MISS:          0
cpu0_STLB PREFETCH REQUESTED:          0 ISSUED:          0 USEFUL:          0 USELESS:          0
cpu0_STLB AVERAGE MISS LATENCY: 330.7 cycles

DRAM Statistics

Channel 0 RQ ROW_BUFFER_HIT:     179380
  ROW_BUFFER_MISS:     403888
 AVG DBUS CONGESTED CYCLE: 3.912
WQ ROW_BUFFER_HIT: Channel 0 
  ROW_BUFFER_MISS:       6491
  FULL:     235736
