WARNING: physical memory size is smaller than virtual memory size.

*** ChampSim Multicore Out-of-Order Simulator ***
Warmup Instructions: 25000000
Simulation Instructions: 25000000
Number of CPUs: 1
Page size: 4096

Off-chip DRAM Size: 4 GiB Channels: 1 Width: 64-bit Data Race: 800 MT/s
Heartbeat CPU 0 instructions: 10000002 cycles: 2500926 heartbeat IPC: 3.999 cumulative IPC: 3.999 (Simulation time: 00 hr 00 min 28 sec)
Heartbeat CPU 0 instructions: 20000002 cycles: 5001750 heartbeat IPC: 3.999 cumulative IPC: 3.999 (Simulation time: 00 hr 00 min 57 sec)
Warmup finished CPU 0 instructions: 25000002 cycles: 6252159 cumulative IPC: 3.999 (Simulation time: 00 hr 01 min 12 sec)
Warmup complete CPU 0 instructions: 25000002 cycles: 6252159 cumulative IPC: 3.999 (Simulation time: 00 hr 01 min 12 sec)
Heartbeat CPU 0 instructions: 30000002 cycles: 11730810 heartbeat IPC: 1.486 cumulative IPC: 0.9126 (Simulation time: 00 hr 01 min 58 sec)
Heartbeat CPU 0 instructions: 40000000 cycles: 22544650 heartbeat IPC: 0.9247 cumulative IPC: 0.9207 (Simulation time: 00 hr 03 min 31 sec)
Heartbeat CPU 0 instructions: 50000000 cycles: 33482641 heartbeat IPC: 0.9142 cumulative IPC: 0.9181 (Simulation time: 00 hr 05 min 06 sec)
Simulation finished CPU 0 instructions: 25000002 cycles: 27230484 cumulative IPC: 0.9181 (Simulation time: 00 hr 05 min 06 sec)
Simulation complete CPU 0 instructions: 25000002 cycles: 27230484 cumulative IPC: 0.9181 (Simulation time: 00 hr 05 min 06 sec)

ChampSim completed all CPUs

=== Simulation ===
CPU 0 runs ./traces/654.roms_s-294B.champsimtrace.xz
Region of Interest Statistics

CPU 0 cumulative IPC: 0.9181 instructions: 25000002 cycles: 27230484
CPU 0 Branch Prediction Accuracy: 99.93% MPKI: 0.03748 Average ROB Occupancy at Mispredict: 324.5
Branch type MPKI
BRANCH_DIRECT_JUMP: 0
BRANCH_INDIRECT: 0
BRANCH_CONDITIONAL: 0.0375
BRANCH_DIRECT_CALL: 0
BRANCH_INDIRECT_CALL: 0
BRANCH_RETURN: 0

LLC TOTAL        ACCESS:     343553 HIT:       2929 MISS:     340624
LLC LOAD         ACCESS:      23383 HIT:         86 MISS:      23297
LLC RFO          ACCESS:       2561 HIT:         20 MISS:       2541
LLC PREFETCH     ACCESS:     302897 HIT:         44 MISS:     302853
LLC WRITE        ACCESS:       2633 HIT:         21 MISS:       2612
LLC TRANSLATION  ACCESS:      12079 HIT:       2758 MISS:       9321
LLC PREFETCH REQUESTED:          0 ISSUED:          0 USEFUL:          0 USELESS:          0
LLC AVERAGE MISS LATENCY: 537.2 cycles
cpu0_DTLB TOTAL        ACCESS:    6754366 HIT:    6713750 MISS:      40616
cpu0_DTLB LOAD         ACCESS:    6754366 HIT:    6713750 MISS:      40616
cpu0_DTLB RFO          ACCESS:          0 HIT:          0 MISS:          0
cpu0_DTLB PREFETCH     ACCESS:          0 HIT:          0 MISS:          0
cpu0_DTLB WRITE        ACCESS:          0 HIT:          0 MISS:          0
cpu0_DTLB TRANSLATION  ACCESS:          0 HIT:          0 MISS:          0
cpu0_DTLB PREFETCH REQUESTED:          0 ISSUED:          0 USEFUL:          0 USELESS:          0
cpu0_DTLB AVERAGE MISS LATENCY: 108.1 cycles
cpu0_ITLB TOTAL        ACCESS:          0 HIT:          0 MISS:          0
cpu0_ITLB LOAD         ACCESS:          0 HIT:          0 MISS:          0
cpu0_ITLB RFO          ACCESS:          0 HIT:          0 MISS:          0
cpu0_ITLB PREFETCH     ACCESS:          0 HIT:          0 MISS:          0
cpu0_ITLB WRITE        ACCESS:          0 HIT:          0 MISS:          0
cpu0_ITLB TRANSLATION  ACCESS:          0 HIT:          0 MISS:          0
cpu0_ITLB PREFETCH REQUESTED:          0 ISSUED:          0 USEFUL:          0 USELESS:          0
cpu0_ITLB AVERAGE MISS LATENCY: -nan cycles
cpu0_L1D TOTAL        ACCESS:   10474333 HIT:    7813694 MISS:    2660639
cpu0_L1D LOAD         ACCESS:    7332452 HIT:    5676124 MISS:    1656328
cpu0_L1D RFO          ACCESS:          0 HIT:          0 MISS:          0
cpu0_L1D PREFETCH     ACCESS:    2279549 HIT:    1302743 MISS:     976806
cpu0_L1D WRITE        ACCESS:     849933 HIT:     834739 MISS:      15194
cpu0_L1D TRANSLATION  ACCESS:      12399 HIT:         88 MISS:      12311
cpu0_L1D PREFETCH REQUESTED:    7332744 ISSUED:    2279549 USEFUL:     416730 USELESS:      11396
cpu0_L1D AVERAGE MISS LATENCY: 25.97 cycles
cpu0_L1I TOTAL        ACCESS:          0 HIT:          0 MISS:          0
cpu0_L1I LOAD         ACCESS:          0 HIT:          0 MISS:          0
cpu0_L1I RFO          ACCESS:          0 HIT:          0 MISS:          0
cpu0_L1I PREFETCH     ACCESS:          0 HIT:          0 MISS:          0
cpu0_L1I WRITE        ACCESS:          0 HIT:          0 MISS:          0
cpu0_L1I TRANSLATION  ACCESS:          0 HIT:          0 MISS:          0
cpu0_L1I PREFETCH REQUESTED:          0 ISSUED:          0 USEFUL:          0 USELESS:          0
cpu0_L1I AVERAGE MISS LATENCY: -nan cycles
cpu0_L2C TOTAL        ACCESS:     597704 HIT:     254533 MISS:     343171
cpu0_L2C LOAD         ACCESS:      43917 HIT:      20529 MISS:      23388
cpu0_L2C RFO          ACCESS:       2612 HIT:         51 MISS:       2561
cpu0_L2C PREFETCH     ACCESS:     443563 HIT:     138420 MISS:     305143
cpu0_L2C WRITE        ACCESS:      95337 HIT:      95337 MISS:          0
cpu0_L2C TRANSLATION  ACCESS:      12275 HIT:        196 MISS:      12079
cpu0_L2C PREFETCH REQUESTED:      15433 ISSUED:      15433 USEFUL:        482 USELESS:       1255
cpu0_L2C AVERAGE MISS LATENCY: 553.7 cycles
cpu0_STLB TOTAL        ACCESS:       9850 HIT:       1635 MISS:       8215
cpu0_STLB LOAD         ACCESS:       9850 HIT:       1635 MISS:       8215
cpu0_STLB RFO          ACCESS:          0 HIT:          0 MISS:          0
cpu0_STLB PREFETCH     ACCESS:          0 HIT:          0 MISS:          0
cpu0_STLB WRITE        ACCESS:          0 HIT:          0 MISS:          0
cpu0_STLB TRANSLATION  ACCESS:          0 HIT:          0 MISS:          0
cpu0_STLB PREFETCH REQUESTED:          0 ISSUED:          0 USEFUL:          0 USELESS:          0
cpu0_STLB AVERAGE MISS LATENCY: 904.7 cycles

DRAM Statistics

Channel 0 RQ ROW_BUFFER_HIT:     185981
  ROW_BUFFER_MISS:     151323
 AVG DBUS CONGESTED CYCLE: 3.755
WQ ROW_BUFFER_HIT: Channel 0 
  ROW_BUFFER_MISS:        480
  FULL:       2132
