WARNING: physical memory size is smaller than virtual memory size.

*** ChampSim Multicore Out-of-Order Simulator ***
Warmup Instructions: 25000000
Simulation Instructions: 25000000
Number of CPUs: 1
Page size: 4096

Off-chip DRAM Size: 4 GiB Channels: 1 Width: 64-bit Data Race: 800 MT/s
Heartbeat CPU 0 instructions: 10000003 cycles: 2500108 heartbeat IPC: 4 cumulative IPC: 4 (Simulation time: 00 hr 00 min 32 sec)
Heartbeat CPU 0 instructions: 20000003 cycles: 5000108 heartbeat IPC: 4 cumulative IPC: 4 (Simulation time: 00 hr 01 min 05 sec)
Warmup finished CPU 0 instructions: 25000003 cycles: 6250109 cumulative IPC: 4 (Simulation time: 00 hr 01 min 20 sec)
Warmup complete CPU 0 instructions: 25000003 cycles: 6250109 cumulative IPC: 4 (Simulation time: 00 hr 01 min 20 sec)
Heartbeat CPU 0 instructions: 30000001 cycles: 24068812 heartbeat IPC: 0.5244 cumulative IPC: 0.2806 (Simulation time: 00 hr 03 min 33 sec)
Heartbeat CPU 0 instructions: 40000002 cycles: 49563719 heartbeat IPC: 0.3922 cumulative IPC: 0.3463 (Simulation time: 00 hr 06 min 54 sec)
Heartbeat CPU 0 instructions: 50000000 cycles: 67157647 heartbeat IPC: 0.5684 cumulative IPC: 0.4105 (Simulation time: 00 hr 09 min 24 sec)
Simulation finished CPU 0 instructions: 25000001 cycles: 60907540 cumulative IPC: 0.4105 (Simulation time: 00 hr 09 min 24 sec)
Simulation complete CPU 0 instructions: 25000001 cycles: 60907540 cumulative IPC: 0.4105 (Simulation time: 00 hr 09 min 24 sec)

ChampSim completed all CPUs

=== Simulation ===
CPU 0 runs ./traces/654.roms_s-1070B.champsimtrace.xz
Region of Interest Statistics

CPU 0 cumulative IPC: 0.4105 instructions: 25000001 cycles: 60907540
CPU 0 Branch Prediction Accuracy: 99.88% MPKI: 0.06228 Average ROB Occupancy at Mispredict: 351.7
Branch type MPKI
BRANCH_DIRECT_JUMP: 0
BRANCH_INDIRECT: 0
BRANCH_CONDITIONAL: 0.0623
BRANCH_DIRECT_CALL: 0
BRANCH_INDIRECT_CALL: 0
BRANCH_RETURN: 0

LLC TOTAL        ACCESS:     729911 HIT:      35881 MISS:     694030
LLC LOAD         ACCESS:      43858 HIT:       2120 MISS:      41738
LLC RFO          ACCESS:     167090 HIT:       7377 MISS:     159713
LLC PREFETCH     ACCESS:     349074 HIT:      15312 MISS:     333762
LLC WRITE        ACCESS:     167085 HIT:      11065 MISS:     156020
LLC TRANSLATION  ACCESS:       2804 HIT:          7 MISS:       2797
LLC PREFETCH REQUESTED:          0 ISSUED:          0 USEFUL:          0 USELESS:          0
LLC AVERAGE MISS LATENCY: 989.7 cycles
cpu0_DTLB TOTAL        ACCESS:    6686616 HIT:    6626840 MISS:      59776
cpu0_DTLB LOAD         ACCESS:    6686616 HIT:    6626840 MISS:      59776
cpu0_DTLB RFO          ACCESS:          0 HIT:          0 MISS:          0
cpu0_DTLB PREFETCH     ACCESS:          0 HIT:          0 MISS:          0
cpu0_DTLB WRITE        ACCESS:          0 HIT:          0 MISS:          0
cpu0_DTLB TRANSLATION  ACCESS:          0 HIT:          0 MISS:          0
cpu0_DTLB PREFETCH REQUESTED:          0 ISSUED:          0 USEFUL:          0 USELESS:          0
cpu0_DTLB AVERAGE MISS LATENCY: 42.22 cycles
cpu0_ITLB TOTAL        ACCESS:          0 HIT:          0 MISS:          0
cpu0_ITLB LOAD         ACCESS:          0 HIT:          0 MISS:          0
cpu0_ITLB RFO          ACCESS:          0 HIT:          0 MISS:          0
cpu0_ITLB PREFETCH     ACCESS:          0 HIT:          0 MISS:          0
cpu0_ITLB WRITE        ACCESS:          0 HIT:          0 MISS:          0
cpu0_ITLB TRANSLATION  ACCESS:          0 HIT:          0 MISS:          0
cpu0_ITLB PREFETCH REQUESTED:          0 ISSUED:          0 USEFUL:          0 USELESS:          0
cpu0_ITLB AVERAGE MISS LATENCY: -nan cycles
cpu0_L1D TOTAL        ACCESS:   11304553 HIT:    5718213 MISS:    5586340
cpu0_L1D LOAD         ACCESS:    7118583 HIT:    4456771 MISS:    2661812
cpu0_L1D RFO          ACCESS:          0 HIT:          0 MISS:          0
cpu0_L1D PREFETCH     ACCESS:    2844801 HIT:    1191473 MISS:    1653328
cpu0_L1D WRITE        ACCESS:    1329057 HIT:      69029 MISS:    1260028
cpu0_L1D TRANSLATION  ACCESS:      12112 HIT:        940 MISS:      11172
cpu0_L1D PREFETCH REQUESTED:    8365525 ISSUED:    2844795 USEFUL:     327568 USELESS:       6131
cpu0_L1D AVERAGE MISS LATENCY: 66.82 cycles
cpu0_L1I TOTAL        ACCESS:          0 HIT:          0 MISS:          0
cpu0_L1I LOAD         ACCESS:          0 HIT:          0 MISS:          0
cpu0_L1I RFO          ACCESS:          0 HIT:          0 MISS:          0
cpu0_L1I PREFETCH     ACCESS:          0 HIT:          0 MISS:          0
cpu0_L1I WRITE        ACCESS:          0 HIT:          0 MISS:          0
cpu0_L1I TRANSLATION  ACCESS:          0 HIT:          0 MISS:          0
cpu0_L1I PREFETCH REQUESTED:          0 ISSUED:          0 USEFUL:          0 USELESS:          0
cpu0_L1I AVERAGE MISS LATENCY: -nan cycles
cpu0_L2C TOTAL        ACCESS:     757001 HIT:     183523 MISS:     573478
cpu0_L2C LOAD         ACCESS:      50291 HIT:       4280 MISS:      46011
cpu0_L2C RFO          ACCESS:     167090 HIT:          0 MISS:     167090
cpu0_L2C PREFETCH     ACCESS:     360285 HIT:       2719 MISS:     357566
cpu0_L2C WRITE        ACCESS:     168163 HIT:     168156 MISS:          7
cpu0_L2C TRANSLATION  ACCESS:      11172 HIT:       8368 MISS:       2804
cpu0_L2C PREFETCH REQUESTED:      26587 ISSUED:      26587 USEFUL:       4206 USELESS:       4536
cpu0_L2C AVERAGE MISS LATENCY: 1199 cycles
cpu0_STLB TOTAL        ACCESS:      12085 HIT:          6 MISS:      12079
cpu0_STLB LOAD         ACCESS:      12085 HIT:          6 MISS:      12079
cpu0_STLB RFO          ACCESS:          0 HIT:          0 MISS:          0
cpu0_STLB PREFETCH     ACCESS:          0 HIT:          0 MISS:          0
cpu0_STLB WRITE        ACCESS:          0 HIT:          0 MISS:          0
cpu0_STLB TRANSLATION  ACCESS:          0 HIT:          0 MISS:          0
cpu0_STLB PREFETCH REQUESTED:          0 ISSUED:          0 USEFUL:          0 USELESS:          0
cpu0_STLB AVERAGE MISS LATENCY: 442.7 cycles

DRAM Statistics

Channel 0 RQ ROW_BUFFER_HIT:      88443
  ROW_BUFFER_MISS:     437848
 AVG DBUS CONGESTED CYCLE: 3.951
WQ ROW_BUFFER_HIT: Channel 0 
  ROW_BUFFER_MISS:      20248
  FULL:     138662
