WARNING: physical memory size is smaller than virtual memory size.

*** ChampSim Multicore Out-of-Order Simulator ***
Warmup Instructions: 25000000
Simulation Instructions: 25000000
Number of CPUs: 1
Page size: 4096

Off-chip DRAM Size: 4 GiB Channels: 1 Width: 64-bit Data Race: 800 MT/s
Heartbeat CPU 0 instructions: 10000000 cycles: 2500349 heartbeat IPC: 3.999 cumulative IPC: 3.999 (Simulation time: 00 hr 00 min 29 sec)
Heartbeat CPU 0 instructions: 20000000 cycles: 5000349 heartbeat IPC: 4 cumulative IPC: 4 (Simulation time: 00 hr 00 min 58 sec)
Warmup finished CPU 0 instructions: 25000000 cycles: 6250350 cumulative IPC: 4 (Simulation time: 00 hr 01 min 14 sec)
Warmup complete CPU 0 instructions: 25000000 cycles: 6250350 cumulative IPC: 4 (Simulation time: 00 hr 01 min 14 sec)
Heartbeat CPU 0 instructions: 30000002 cycles: 20515491 heartbeat IPC: 0.6445 cumulative IPC: 0.3505 (Simulation time: 00 hr 03 min 03 sec)
Heartbeat CPU 0 instructions: 40000001 cycles: 48979516 heartbeat IPC: 0.3513 cumulative IPC: 0.351 (Simulation time: 00 hr 06 min 45 sec)
Heartbeat CPU 0 instructions: 50000003 cycles: 66839026 heartbeat IPC: 0.5599 cumulative IPC: 0.4126 (Simulation time: 00 hr 09 min 11 sec)
Simulation finished CPU 0 instructions: 25000003 cycles: 60588677 cumulative IPC: 0.4126 (Simulation time: 00 hr 09 min 11 sec)
Simulation complete CPU 0 instructions: 25000003 cycles: 60588677 cumulative IPC: 0.4126 (Simulation time: 00 hr 09 min 11 sec)

ChampSim completed all CPUs

=== Simulation ===
CPU 0 runs ./traces/654.roms_s-523B.champsimtrace.xz
Region of Interest Statistics

CPU 0 cumulative IPC: 0.4126 instructions: 25000003 cycles: 60588677
CPU 0 Branch Prediction Accuracy: 99.85% MPKI: 0.09976 Average ROB Occupancy at Mispredict: 350.2
Branch type MPKI
BRANCH_DIRECT_JUMP: 4e-05
BRANCH_INDIRECT: 0
BRANCH_CONDITIONAL: 0.0997
BRANCH_DIRECT_CALL: 0
BRANCH_INDIRECT_CALL: 0
BRANCH_RETURN: 0

LLC TOTAL        ACCESS:     895816 HIT:       2447 MISS:     893369
LLC LOAD         ACCESS:     119296 HIT:        314 MISS:     118982
LLC RFO          ACCESS:     155875 HIT:         31 MISS:     155844
LLC PREFETCH     ACCESS:     393657 HIT:        692 MISS:     392965
LLC WRITE        ACCESS:     222647 HIT:       1396 MISS:     221251
LLC TRANSLATION  ACCESS:       4341 HIT:         14 MISS:       4327
LLC PREFETCH REQUESTED:          0 ISSUED:          0 USEFUL:          0 USELESS:          0
LLC AVERAGE MISS LATENCY: 775.5 cycles
cpu0_DTLB TOTAL        ACCESS:    6771419 HIT:    6680195 MISS:      91224
cpu0_DTLB LOAD         ACCESS:    6771419 HIT:    6680195 MISS:      91224
cpu0_DTLB RFO          ACCESS:          0 HIT:          0 MISS:          0
cpu0_DTLB PREFETCH     ACCESS:          0 HIT:          0 MISS:          0
cpu0_DTLB WRITE        ACCESS:          0 HIT:          0 MISS:          0
cpu0_DTLB TRANSLATION  ACCESS:          0 HIT:          0 MISS:          0
cpu0_DTLB PREFETCH REQUESTED:          0 ISSUED:          0 USEFUL:          0 USELESS:          0
cpu0_DTLB AVERAGE MISS LATENCY: 41.75 cycles
cpu0_ITLB TOTAL        ACCESS:         32 HIT:         32 MISS:          0
cpu0_ITLB LOAD         ACCESS:         32 HIT:         32 MISS:          0
cpu0_ITLB RFO          ACCESS:          0 HIT:          0 MISS:          0
cpu0_ITLB PREFETCH     ACCESS:          0 HIT:          0 MISS:          0
cpu0_ITLB WRITE        ACCESS:          0 HIT:          0 MISS:          0
cpu0_ITLB TRANSLATION  ACCESS:          0 HIT:          0 MISS:          0
cpu0_ITLB PREFETCH REQUESTED:          0 ISSUED:          0 USEFUL:          0 USELESS:          0
cpu0_ITLB AVERAGE MISS LATENCY: -nan cycles
cpu0_L1D TOTAL        ACCESS:   11910016 HIT:    5028034 MISS:    6881982
cpu0_L1D LOAD         ACCESS:    7274395 HIT:    3508521 MISS:    3765874
cpu0_L1D RFO          ACCESS:          0 HIT:          0 MISS:          0
cpu0_L1D PREFETCH     ACCESS:    2850509 HIT:     942496 MISS:    1908013
cpu0_L1D WRITE        ACCESS:    1769189 HIT:     574175 MISS:    1195014
cpu0_L1D TRANSLATION  ACCESS:      15923 HIT:       2842 MISS:      13081
cpu0_L1D PREFETCH REQUESTED:    7802109 ISSUED:    2850510 USEFUL:     391863 USELESS:      10906
cpu0_L1D AVERAGE MISS LATENCY: 59.04 cycles
cpu0_L1I TOTAL        ACCESS:         36 HIT:          6 MISS:         30
cpu0_L1I LOAD         ACCESS:         36 HIT:          6 MISS:         30
cpu0_L1I RFO          ACCESS:          0 HIT:          0 MISS:          0
cpu0_L1I PREFETCH     ACCESS:          0 HIT:          0 MISS:          0
cpu0_L1I WRITE        ACCESS:          0 HIT:          0 MISS:          0
cpu0_L1I TRANSLATION  ACCESS:          0 HIT:          0 MISS:          0
cpu0_L1I PREFETCH REQUESTED:          0 ISSUED:          0 USEFUL:          0 USELESS:          0
cpu0_L1I AVERAGE MISS LATENCY: 1105 cycles
cpu0_L2C TOTAL        ACCESS:     999021 HIT:     281716 MISS:     717305
cpu0_L2C LOAD         ACCESS:     141719 HIT:      16366 MISS:     125353
cpu0_L2C RFO          ACCESS:     155877 HIT:          2 MISS:     155875
cpu0_L2C PREFETCH     ACCESS:     464636 HIT:      32908 MISS:     431728
cpu0_L2C WRITE        ACCESS:     223713 HIT:     223705 MISS:          8
cpu0_L2C TRANSLATION  ACCESS:      13076 HIT:       8735 MISS:       4341
cpu0_L2C PREFETCH REQUESTED:      61865 ISSUED:      61865 USEFUL:      26335 USELESS:      16995
cpu0_L2C AVERAGE MISS LATENCY: 981.8 cycles
cpu0_STLB TOTAL        ACCESS:      15890 HIT:         12 MISS:      15878
cpu0_STLB LOAD         ACCESS:      15890 HIT:         12 MISS:      15878
cpu0_STLB RFO          ACCESS:          0 HIT:          0 MISS:          0
cpu0_STLB PREFETCH     ACCESS:          0 HIT:          0 MISS:          0
cpu0_STLB WRITE        ACCESS:          0 HIT:          0 MISS:          0
cpu0_STLB TRANSLATION  ACCESS:          0 HIT:          0 MISS:          0
cpu0_STLB PREFETCH REQUESTED:          0 ISSUED:          0 USEFUL:          0 USELESS:          0
cpu0_STLB AVERAGE MISS LATENCY: 469.3 cycles

DRAM Statistics

Channel 0 RQ ROW_BUFFER_HIT:     166221
  ROW_BUFFER_MISS:     505309
 AVG DBUS CONGESTED CYCLE: 3.914
WQ ROW_BUFFER_HIT: Channel 0 
  ROW_BUFFER_MISS:      28225
  FULL:     194376
