WARNING: physical memory size is smaller than virtual memory size.

*** ChampSim Multicore Out-of-Order Simulator ***
Warmup Instructions: 25000000
Simulation Instructions: 25000000
Number of CPUs: 1
Page size: 4096

Off-chip DRAM Size: 4 GiB Channels: 1 Width: 64-bit Data Race: 800 MT/s
Heartbeat CPU 0 instructions: 10000002 cycles: 2500084 heartbeat IPC: 4 cumulative IPC: 4 (Simulation time: 00 hr 00 min 28 sec)
Heartbeat CPU 0 instructions: 20000002 cycles: 5000084 heartbeat IPC: 4 cumulative IPC: 4 (Simulation time: 00 hr 00 min 56 sec)
Warmup finished CPU 0 instructions: 25000002 cycles: 6250085 cumulative IPC: 4 (Simulation time: 00 hr 01 min 11 sec)
Warmup complete CPU 0 instructions: 25000002 cycles: 6250085 cumulative IPC: 4 (Simulation time: 00 hr 01 min 11 sec)
Heartbeat CPU 0 instructions: 30000002 cycles: 7862142 heartbeat IPC: 3.494 cumulative IPC: 3.102 (Simulation time: 00 hr 01 min 28 sec)
Heartbeat CPU 0 instructions: 40000002 cycles: 11116941 heartbeat IPC: 3.072 cumulative IPC: 3.082 (Simulation time: 00 hr 02 min 02 sec)
Heartbeat CPU 0 instructions: 50000003 cycles: 25414828 heartbeat IPC: 0.6994 cumulative IPC: 1.304 (Simulation time: 00 hr 03 min 45 sec)
Simulation finished CPU 0 instructions: 25000001 cycles: 19164744 cumulative IPC: 1.304 (Simulation time: 00 hr 03 min 45 sec)
Simulation complete CPU 0 instructions: 25000001 cycles: 19164744 cumulative IPC: 1.304 (Simulation time: 00 hr 03 min 45 sec)

ChampSim completed all CPUs

=== Simulation ===
CPU 0 runs ./traces/654.roms_s-1613B.champsimtrace.xz
Region of Interest Statistics

CPU 0 cumulative IPC: 1.304 instructions: 25000001 cycles: 19164744
CPU 0 Branch Prediction Accuracy: 87.17% MPKI: 13.24 Average ROB Occupancy at Mispredict: 73.34
Branch type MPKI
BRANCH_DIRECT_JUMP: 0.00032
BRANCH_INDIRECT: 0
BRANCH_CONDITIONAL: 6.64
BRANCH_DIRECT_CALL: 0.00032
BRANCH_INDIRECT_CALL: 0
BRANCH_RETURN: 6.6

LLC TOTAL        ACCESS:     326725 HIT:      47864 MISS:     278861
LLC LOAD         ACCESS:      43202 HIT:       4406 MISS:      38796
LLC RFO          ACCESS:      76911 HIT:      12658 MISS:      64253
LLC PREFETCH     ACCESS:     128673 HIT:      13363 MISS:     115310
LLC WRITE        ACCESS:      77046 HIT:      17414 MISS:      59632
LLC TRANSLATION  ACCESS:        893 HIT:         23 MISS:        870
LLC PREFETCH REQUESTED:          0 ISSUED:          0 USEFUL:          0 USELESS:          0
LLC AVERAGE MISS LATENCY: 619.2 cycles
cpu0_DTLB TOTAL        ACCESS:    4899418 HIT:    4862446 MISS:      36972
cpu0_DTLB LOAD         ACCESS:    4899418 HIT:    4862446 MISS:      36972
cpu0_DTLB RFO          ACCESS:          0 HIT:          0 MISS:          0
cpu0_DTLB PREFETCH     ACCESS:          0 HIT:          0 MISS:          0
cpu0_DTLB WRITE        ACCESS:          0 HIT:          0 MISS:          0
cpu0_DTLB TRANSLATION  ACCESS:          0 HIT:          0 MISS:          0
cpu0_DTLB PREFETCH REQUESTED:          0 ISSUED:          0 USEFUL:          0 USELESS:          0
cpu0_DTLB AVERAGE MISS LATENCY: 24.97 cycles
cpu0_ITLB TOTAL        ACCESS:        127 HIT:        117 MISS:         10
cpu0_ITLB LOAD         ACCESS:        127 HIT:        117 MISS:         10
cpu0_ITLB RFO          ACCESS:          0 HIT:          0 MISS:          0
cpu0_ITLB PREFETCH     ACCESS:          0 HIT:          0 MISS:          0
cpu0_ITLB WRITE        ACCESS:          0 HIT:          0 MISS:          0
cpu0_ITLB TRANSLATION  ACCESS:          0 HIT:          0 MISS:          0
cpu0_ITLB PREFETCH REQUESTED:          0 ISSUED:          0 USEFUL:          0 USELESS:          0
cpu0_ITLB AVERAGE MISS LATENCY: 391.2 cycles
cpu0_L1D TOTAL        ACCESS:   10333637 HIT:    8921327 MISS:    1412310
cpu0_L1D LOAD         ACCESS:    3953571 HIT:    3458551 MISS:     495020
cpu0_L1D RFO          ACCESS:          0 HIT:          0 MISS:          0
cpu0_L1D PREFETCH     ACCESS:    3620731 HIT:    3240483 MISS:     380248
cpu0_L1D WRITE        ACCESS:    2755397 HIT:    2220775 MISS:     534622
cpu0_L1D TRANSLATION  ACCESS:       3938 HIT:       1518 MISS:       2420
cpu0_L1D PREFETCH REQUESTED:    6257903 ISSUED:    3620740 USEFUL:      56564 USELESS:       2286
cpu0_L1D AVERAGE MISS LATENCY: 102.8 cycles
cpu0_L1I TOTAL        ACCESS:        149 HIT:         55 MISS:         94
cpu0_L1I LOAD         ACCESS:        149 HIT:         55 MISS:         94
cpu0_L1I RFO          ACCESS:          0 HIT:          0 MISS:          0
cpu0_L1I PREFETCH     ACCESS:          0 HIT:          0 MISS:          0
cpu0_L1I WRITE        ACCESS:          0 HIT:          0 MISS:          0
cpu0_L1I TRANSLATION  ACCESS:          0 HIT:          0 MISS:          0
cpu0_L1I PREFETCH REQUESTED:          0 ISSUED:          0 USEFUL:          0 USELESS:          0
cpu0_L1I AVERAGE MISS LATENCY: 289.1 cycles
cpu0_L2C TOTAL        ACCESS:     411589 HIT:     118638 MISS:     292951
cpu0_L2C LOAD         ACCESS:      59964 HIT:       6617 MISS:      53347
cpu0_L2C RFO          ACCESS:      76992 HIT:         81 MISS:      76911
cpu0_L2C PREFETCH     ACCESS:     194542 HIT:      32959 MISS:     161583
cpu0_L2C WRITE        ACCESS:      77674 HIT:      77457 MISS:        217
cpu0_L2C TRANSLATION  ACCESS:       2417 HIT:       1524 MISS:        893
cpu0_L2C PREFETCH REQUESTED:     135693 ISSUED:     135693 USEFUL:      26843 USELESS:       6000
cpu0_L2C AVERAGE MISS LATENCY: 575 cycles
cpu0_STLB TOTAL        ACCESS:       4216 HIT:        297 MISS:       3919
cpu0_STLB LOAD         ACCESS:       4216 HIT:        297 MISS:       3919
cpu0_STLB RFO          ACCESS:          0 HIT:          0 MISS:          0
cpu0_STLB PREFETCH     ACCESS:          0 HIT:          0 MISS:          0
cpu0_STLB WRITE        ACCESS:          0 HIT:          0 MISS:          0
cpu0_STLB TRANSLATION  ACCESS:          0 HIT:          0 MISS:          0
cpu0_STLB PREFETCH REQUESTED:          0 ISSUED:          0 USEFUL:          0 USELESS:          0
cpu0_STLB AVERAGE MISS LATENCY: 460.1 cycles

DRAM Statistics

Channel 0 RQ ROW_BUFFER_HIT:      92475
  ROW_BUFFER_MISS:      80174
 AVG DBUS CONGESTED CYCLE: 3.923
WQ ROW_BUFFER_HIT: Channel 0 
  ROW_BUFFER_MISS:      11075
  FULL:      51138
