WARNING: physical memory size is smaller than virtual memory size.

*** ChampSim Multicore Out-of-Order Simulator ***
Warmup Instructions: 25000000
Simulation Instructions: 25000000
Number of CPUs: 1
Page size: 4096

Off-chip DRAM Size: 4 GiB Channels: 1 Width: 64-bit Data Race: 800 MT/s
Heartbeat CPU 0 instructions: 10000003 cycles: 2500445 heartbeat IPC: 3.999 cumulative IPC: 3.999 (Simulation time: 00 hr 00 min 27 sec)
Heartbeat CPU 0 instructions: 20000003 cycles: 5001144 heartbeat IPC: 3.999 cumulative IPC: 3.999 (Simulation time: 00 hr 00 min 54 sec)
Warmup finished CPU 0 instructions: 25000003 cycles: 6251145 cumulative IPC: 3.999 (Simulation time: 00 hr 01 min 08 sec)
Warmup complete CPU 0 instructions: 25000003 cycles: 6251145 cumulative IPC: 3.999 (Simulation time: 00 hr 01 min 08 sec)
Heartbeat CPU 0 instructions: 30000002 cycles: 9460062 heartbeat IPC: 2.243 cumulative IPC: 1.558 (Simulation time: 00 hr 01 min 37 sec)
Heartbeat CPU 0 instructions: 40000002 cycles: 16496306 heartbeat IPC: 1.421 cumulative IPC: 1.464 (Simulation time: 00 hr 02 min 38 sec)
Heartbeat CPU 0 instructions: 50000000 cycles: 22265825 heartbeat IPC: 1.733 cumulative IPC: 1.561 (Simulation time: 00 hr 03 min 31 sec)
Simulation finished CPU 0 instructions: 25000001 cycles: 16014682 cumulative IPC: 1.561 (Simulation time: 00 hr 03 min 31 sec)
Simulation complete CPU 0 instructions: 25000001 cycles: 16014682 cumulative IPC: 1.561 (Simulation time: 00 hr 03 min 31 sec)

ChampSim completed all CPUs

=== Simulation ===
CPU 0 runs ./traces/654.roms_s-293B.champsimtrace.xz
Region of Interest Statistics

CPU 0 cumulative IPC: 1.561 instructions: 25000001 cycles: 16014682
CPU 0 Branch Prediction Accuracy: 99.8% MPKI: 0.02352 Average ROB Occupancy at Mispredict: 346.9
Branch type MPKI
BRANCH_DIRECT_JUMP: 0
BRANCH_INDIRECT: 0
BRANCH_CONDITIONAL: 0.0235
BRANCH_DIRECT_CALL: 0
BRANCH_INDIRECT_CALL: 0
BRANCH_RETURN: 0

LLC TOTAL        ACCESS:     391965 HIT:     213117 MISS:     178848
LLC LOAD         ACCESS:      27411 HIT:      15953 MISS:      11458
LLC RFO          ACCESS:     128295 HIT:      67937 MISS:      60358
LLC PREFETCH     ACCESS:     107073 HIT:      53871 MISS:      53202
LLC WRITE        ACCESS:     125721 HIT:      74983 MISS:      50738
LLC TRANSLATION  ACCESS:       3465 HIT:        373 MISS:       3092
LLC PREFETCH REQUESTED:          0 ISSUED:          0 USEFUL:          0 USELESS:          0
LLC AVERAGE MISS LATENCY: 670.7 cycles
cpu0_DTLB TOTAL        ACCESS:    5871149 HIT:    5848359 MISS:      22790
cpu0_DTLB LOAD         ACCESS:    5871149 HIT:    5848359 MISS:      22790
cpu0_DTLB RFO          ACCESS:          0 HIT:          0 MISS:          0
cpu0_DTLB PREFETCH     ACCESS:          0 HIT:          0 MISS:          0
cpu0_DTLB WRITE        ACCESS:          0 HIT:          0 MISS:          0
cpu0_DTLB TRANSLATION  ACCESS:          0 HIT:          0 MISS:          0
cpu0_DTLB PREFETCH REQUESTED:          0 ISSUED:          0 USEFUL:          0 USELESS:          0
cpu0_DTLB AVERAGE MISS LATENCY: 101.2 cycles
cpu0_ITLB TOTAL        ACCESS:        290 HIT:        290 MISS:          0
cpu0_ITLB LOAD         ACCESS:        290 HIT:        290 MISS:          0
cpu0_ITLB RFO          ACCESS:          0 HIT:          0 MISS:          0
cpu0_ITLB PREFETCH     ACCESS:          0 HIT:          0 MISS:          0
cpu0_ITLB WRITE        ACCESS:          0 HIT:          0 MISS:          0
cpu0_ITLB TRANSLATION  ACCESS:          0 HIT:          0 MISS:          0
cpu0_ITLB PREFETCH REQUESTED:          0 ISSUED:          0 USEFUL:          0 USELESS:          0
cpu0_ITLB AVERAGE MISS LATENCY: -nan cycles
cpu0_L1D TOTAL        ACCESS:    9693922 HIT:    8673622 MISS:    1020300
cpu0_L1D LOAD         ACCESS:    4584191 HIT:    4314812 MISS:     269379
cpu0_L1D RFO          ACCESS:          0 HIT:          0 MISS:          0
cpu0_L1D PREFETCH     ACCESS:    2748314 HIT:    2507507 MISS:     240807
cpu0_L1D WRITE        ACCESS:    2357800 HIT:    1851275 MISS:     506525
cpu0_L1D TRANSLATION  ACCESS:       3617 HIT:         28 MISS:       3589
cpu0_L1D PREFETCH REQUESTED:    5062342 ISSUED:    2748314 USEFUL:      81822 USELESS:       2765
cpu0_L1D AVERAGE MISS LATENCY: 83.26 cycles
cpu0_L1I TOTAL        ACCESS:        392 HIT:        392 MISS:          0
cpu0_L1I LOAD         ACCESS:        392 HIT:        392 MISS:          0
cpu0_L1I RFO          ACCESS:          0 HIT:          0 MISS:          0
cpu0_L1I PREFETCH     ACCESS:          0 HIT:          0 MISS:          0
cpu0_L1I WRITE        ACCESS:          0 HIT:          0 MISS:          0
cpu0_L1I TRANSLATION  ACCESS:          0 HIT:          0 MISS:          0
cpu0_L1I PREFETCH REQUESTED:          0 ISSUED:          0 USEFUL:          0 USELESS:          0
cpu0_L1I AVERAGE MISS LATENCY: -nan cycles
cpu0_L2C TOTAL        ACCESS:     542700 HIT:     260808 MISS:     281892
cpu0_L2C LOAD         ACCESS:      80187 HIT:      48160 MISS:      32027
cpu0_L2C RFO          ACCESS:     128519 HIT:        223 MISS:     128296
cpu0_L2C PREFETCH     ACCESS:     201730 HIT:      83985 MISS:     117745
cpu0_L2C WRITE        ACCESS:     128694 HIT:     128335 MISS:        359
cpu0_L2C TRANSLATION  ACCESS:       3570 HIT:        105 MISS:       3465
cpu0_L2C PREFETCH REQUESTED:     117139 ISSUED:     117139 USEFUL:      38335 USELESS:       2499
cpu0_L2C AVERAGE MISS LATENCY: 441.1 cycles
cpu0_STLB TOTAL        ACCESS:       6302 HIT:       3930 MISS:       2372
cpu0_STLB LOAD         ACCESS:       6302 HIT:       3930 MISS:       2372
cpu0_STLB RFO          ACCESS:          0 HIT:          0 MISS:          0
cpu0_STLB PREFETCH     ACCESS:          0 HIT:          0 MISS:          0
cpu0_STLB WRITE        ACCESS:          0 HIT:          0 MISS:          0
cpu0_STLB TRANSLATION  ACCESS:          0 HIT:          0 MISS:          0
cpu0_STLB PREFETCH REQUESTED:          0 ISSUED:          0 USEFUL:          0 USELESS:          0
cpu0_STLB AVERAGE MISS LATENCY: 1411 cycles

DRAM Statistics

Channel 0 RQ ROW_BUFFER_HIT:      39797
  ROW_BUFFER_MISS:      87600
 AVG DBUS CONGESTED CYCLE: 3.928
WQ ROW_BUFFER_HIT: Channel 0 
  ROW_BUFFER_MISS:       7210
  FULL:      53352
