WARNING: physical memory size is smaller than virtual memory size.

*** ChampSim Multicore Out-of-Order Simulator ***
Warmup Instructions: 25000000
Simulation Instructions: 25000000
Number of CPUs: 1
Page size: 4096

Off-chip DRAM Size: 4 GiB Channels: 1 Width: 64-bit Data Race: 800 MT/s
Heartbeat CPU 0 instructions: 10000003 cycles: 2858265 heartbeat IPC: 3.499 cumulative IPC: 3.499 (Simulation time: 00 hr 00 min 43 sec)
Heartbeat CPU 0 instructions: 20000002 cycles: 5502648 heartbeat IPC: 3.782 cumulative IPC: 3.635 (Simulation time: 00 hr 01 min 19 sec)
Warmup finished CPU 0 instructions: 25000002 cycles: 6752649 cumulative IPC: 3.702 (Simulation time: 00 hr 01 min 35 sec)
Warmup complete CPU 0 instructions: 25000002 cycles: 6752649 cumulative IPC: 3.702 (Simulation time: 00 hr 01 min 35 sec)
Heartbeat CPU 0 instructions: 30000002 cycles: 24535947 heartbeat IPC: 0.5254 cumulative IPC: 0.2812 (Simulation time: 00 hr 03 min 48 sec)
Heartbeat CPU 0 instructions: 40000003 cycles: 71457944 heartbeat IPC: 0.2131 cumulative IPC: 0.2318 (Simulation time: 00 hr 08 min 48 sec)
Heartbeat CPU 0 instructions: 50000003 cycles: 122751018 heartbeat IPC: 0.195 cumulative IPC: 0.2155 (Simulation time: 00 hr 12 min 32 sec)
Simulation finished CPU 0 instructions: 25000001 cycles: 115998370 cumulative IPC: 0.2155 (Simulation time: 00 hr 12 min 32 sec)
Simulation complete CPU 0 instructions: 25000001 cycles: 115998370 cumulative IPC: 0.2155 (Simulation time: 00 hr 12 min 32 sec)

ChampSim completed all CPUs

=== Simulation ===
CPU 0 runs ./traces/654.roms_s-1390B.champsimtrace.xz
Region of Interest Statistics

CPU 0 cumulative IPC: 0.2155 instructions: 25000001 cycles: 115998370
CPU 0 Branch Prediction Accuracy: 99.8% MPKI: 0.1142 Average ROB Occupancy at Mispredict: 350.8
Branch type MPKI
BRANCH_DIRECT_JUMP: 4e-05
BRANCH_INDIRECT: 0
BRANCH_CONDITIONAL: 0.114
BRANCH_DIRECT_CALL: 0
BRANCH_INDIRECT_CALL: 0
BRANCH_RETURN: 0

LLC TOTAL        ACCESS:    1442169 HIT:      45725 MISS:    1396444
LLC LOAD         ACCESS:     193104 HIT:       4276 MISS:     188828
LLC RFO          ACCESS:     282814 HIT:       4298 MISS:     278516
LLC PREFETCH     ACCESS:     511731 HIT:      10966 MISS:     500765
LLC WRITE        ACCESS:     448306 HIT:      26134 MISS:     422172
LLC TRANSLATION  ACCESS:       6214 HIT:         51 MISS:       6163
LLC PREFETCH REQUESTED:          0 ISSUED:          0 USEFUL:          0 USELESS:          0
LLC AVERAGE MISS LATENCY: 1135 cycles
cpu0_DTLB TOTAL        ACCESS:    7073723 HIT:    6951033 MISS:     122690
cpu0_DTLB LOAD         ACCESS:    7073723 HIT:    6951033 MISS:     122690
cpu0_DTLB RFO          ACCESS:          0 HIT:          0 MISS:          0
cpu0_DTLB PREFETCH     ACCESS:          0 HIT:          0 MISS:          0
cpu0_DTLB WRITE        ACCESS:          0 HIT:          0 MISS:          0
cpu0_DTLB TRANSLATION  ACCESS:          0 HIT:          0 MISS:          0
cpu0_DTLB PREFETCH REQUESTED:          0 ISSUED:          0 USEFUL:          0 USELESS:          0
cpu0_DTLB AVERAGE MISS LATENCY: 69.67 cycles
cpu0_ITLB TOTAL        ACCESS:         98 HIT:         79 MISS:         19
cpu0_ITLB LOAD         ACCESS:         98 HIT:         79 MISS:         19
cpu0_ITLB RFO          ACCESS:          0 HIT:          0 MISS:          0
cpu0_ITLB PREFETCH     ACCESS:          0 HIT:          0 MISS:          0
cpu0_ITLB WRITE        ACCESS:          0 HIT:          0 MISS:          0
cpu0_ITLB TRANSLATION  ACCESS:          0 HIT:          0 MISS:          0
cpu0_ITLB PREFETCH REQUESTED:          0 ISSUED:          0 USEFUL:          0 USELESS:          0
cpu0_ITLB AVERAGE MISS LATENCY: 353.4 cycles
cpu0_L1D TOTAL        ACCESS:   10987178 HIT:    4258650 MISS:    6728528
cpu0_L1D LOAD         ACCESS:    5082368 HIT:    2115528 MISS:    2966840
cpu0_L1D RFO          ACCESS:          0 HIT:          0 MISS:          0
cpu0_L1D PREFETCH     ACCESS:    2324423 HIT:     508690 MISS:    1815733
cpu0_L1D WRITE        ACCESS:    3558557 HIT:    1630890 MISS:    1927667
cpu0_L1D TRANSLATION  ACCESS:      21830 HIT:       3542 MISS:      18288
cpu0_L1D PREFETCH REQUESTED:   11165959 ISSUED:    2324421 USEFUL:     430839 USELESS:      12389
cpu0_L1D AVERAGE MISS LATENCY: 130.7 cycles
cpu0_L1I TOTAL        ACCESS:        138 HIT:         12 MISS:        126
cpu0_L1I LOAD         ACCESS:        138 HIT:         12 MISS:        126
cpu0_L1I RFO          ACCESS:          0 HIT:          0 MISS:          0
cpu0_L1I PREFETCH     ACCESS:          0 HIT:          0 MISS:          0
cpu0_L1I WRITE        ACCESS:          0 HIT:          0 MISS:          0
cpu0_L1I TRANSLATION  ACCESS:          0 HIT:          0 MISS:          0
cpu0_L1I PREFETCH REQUESTED:          0 ISSUED:          0 USEFUL:          0 USELESS:          0
cpu0_L1I AVERAGE MISS LATENCY: 515.2 cycles
cpu0_L2C TOTAL        ACCESS:    1625107 HIT:     532300 MISS:    1092807
cpu0_L2C LOAD         ACCESS:     238097 HIT:      24792 MISS:     213305
cpu0_L2C RFO          ACCESS:     282819 HIT:          5 MISS:     282814
cpu0_L2C PREFETCH     ACCESS:     635296 HIT:      44832 MISS:     590464
cpu0_L2C WRITE        ACCESS:     450608 HIT:     450598 MISS:         10
cpu0_L2C TRANSLATION  ACCESS:      18287 HIT:      12073 MISS:       6214
cpu0_L2C PREFETCH REQUESTED:     192065 ISSUED:     192065 USEFUL:      61893 USELESS:      20716
cpu0_L2C AVERAGE MISS LATENCY: 1427 cycles
cpu0_STLB TOTAL        ACCESS:      31373 HIT:       9636 MISS:      21737
cpu0_STLB LOAD         ACCESS:      31373 HIT:       9636 MISS:      21737
cpu0_STLB RFO          ACCESS:          0 HIT:          0 MISS:          0
cpu0_STLB PREFETCH     ACCESS:          0 HIT:          0 MISS:          0
cpu0_STLB WRITE        ACCESS:          0 HIT:          0 MISS:          0
cpu0_STLB TRANSLATION  ACCESS:          0 HIT:          0 MISS:          0
cpu0_STLB PREFETCH REQUESTED:          0 ISSUED:          0 USEFUL:          0 USELESS:          0
cpu0_STLB AVERAGE MISS LATENCY: 752.6 cycles

DRAM Statistics

Channel 0 RQ ROW_BUFFER_HIT:     208571
  ROW_BUFFER_MISS:     720633
 AVG DBUS CONGESTED CYCLE: 3.935
WQ ROW_BUFFER_HIT: Channel 0 
  ROW_BUFFER_MISS:      64464
  FULL:     377074
