WARNING: physical memory size is smaller than virtual memory size.

*** ChampSim Multicore Out-of-Order Simulator ***
Warmup Instructions: 25000000
Simulation Instructions: 25000000
Number of CPUs: 1
Page size: 4096

Off-chip DRAM Size: 4 GiB Channels: 1 Width: 64-bit Data Race: 800 MT/s
Heartbeat CPU 0 instructions: 10000000 cycles: 2503066 heartbeat IPC: 3.995 cumulative IPC: 3.995 (Simulation time: 00 hr 00 min 27 sec)
Heartbeat CPU 0 instructions: 20000001 cycles: 5007533 heartbeat IPC: 3.993 cumulative IPC: 3.994 (Simulation time: 00 hr 00 min 56 sec)
Warmup finished CPU 0 instructions: 25000000 cycles: 6259016 cumulative IPC: 3.994 (Simulation time: 00 hr 01 min 11 sec)
Warmup complete CPU 0 instructions: 25000000 cycles: 6259016 cumulative IPC: 3.994 (Simulation time: 00 hr 01 min 11 sec)
Heartbeat CPU 0 instructions: 30000001 cycles: 9852248 heartbeat IPC: 2.064 cumulative IPC: 1.392 (Simulation time: 00 hr 01 min 35 sec)
Heartbeat CPU 0 instructions: 40000002 cycles: 18155686 heartbeat IPC: 1.204 cumulative IPC: 1.261 (Simulation time: 00 hr 02 min 33 sec)
Heartbeat CPU 0 instructions: 50000001 cycles: 26477513 heartbeat IPC: 1.202 cumulative IPC: 1.236 (Simulation time: 00 hr 03 min 34 sec)
Simulation finished CPU 0 instructions: 25000001 cycles: 20218498 cumulative IPC: 1.236 (Simulation time: 00 hr 03 min 34 sec)
Simulation complete CPU 0 instructions: 25000001 cycles: 20218498 cumulative IPC: 1.236 (Simulation time: 00 hr 03 min 34 sec)

ChampSim completed all CPUs

=== Simulation ===
CPU 0 runs ./traces/657.xz_s-3167B.champsimtrace.xz
Region of Interest Statistics

CPU 0 cumulative IPC: 1.236 instructions: 25000001 cycles: 20218498
CPU 0 Branch Prediction Accuracy: 89.96% MPKI: 14.78 Average ROB Occupancy at Mispredict: 35.16
Branch type MPKI
BRANCH_DIRECT_JUMP: 0.0787
BRANCH_INDIRECT: 0.897
BRANCH_CONDITIONAL: 13.8
BRANCH_DIRECT_CALL: 0
BRANCH_INDIRECT_CALL: 0.00248
BRANCH_RETURN: 0

LLC TOTAL        ACCESS:     215910 HIT:     105886 MISS:     110024
LLC LOAD         ACCESS:      63548 HIT:      28560 MISS:      34988
LLC RFO          ACCESS:      12097 HIT:       4795 MISS:       7302
LLC PREFETCH     ACCESS:      69685 HIT:      29332 MISS:      40353
LLC WRITE        ACCESS:      58242 HIT:      34077 MISS:      24165
LLC TRANSLATION  ACCESS:      12338 HIT:       9122 MISS:       3216
LLC PREFETCH REQUESTED:          0 ISSUED:          0 USEFUL:          0 USELESS:          0
LLC AVERAGE MISS LATENCY: 221 cycles
cpu0_DTLB TOTAL        ACCESS:    5182400 HIT:    5006842 MISS:     175558
cpu0_DTLB LOAD         ACCESS:    5182400 HIT:    5006842 MISS:     175558
cpu0_DTLB RFO          ACCESS:          0 HIT:          0 MISS:          0
cpu0_DTLB PREFETCH     ACCESS:          0 HIT:          0 MISS:          0
cpu0_DTLB WRITE        ACCESS:          0 HIT:          0 MISS:          0
cpu0_DTLB TRANSLATION  ACCESS:          0 HIT:          0 MISS:          0
cpu0_DTLB PREFETCH REQUESTED:          0 ISSUED:          0 USEFUL:          0 USELESS:          0
cpu0_DTLB AVERAGE MISS LATENCY: 15.57 cycles
cpu0_ITLB TOTAL        ACCESS:     176596 HIT:     176596 MISS:          0
cpu0_ITLB LOAD         ACCESS:     176596 HIT:     176596 MISS:          0
cpu0_ITLB RFO          ACCESS:          0 HIT:          0 MISS:          0
cpu0_ITLB PREFETCH     ACCESS:          0 HIT:          0 MISS:          0
cpu0_ITLB WRITE        ACCESS:          0 HIT:          0 MISS:          0
cpu0_ITLB TRANSLATION  ACCESS:          0 HIT:          0 MISS:          0
cpu0_ITLB PREFETCH REQUESTED:          0 ISSUED:          0 USEFUL:          0 USELESS:          0
cpu0_ITLB AVERAGE MISS LATENCY: -nan cycles
cpu0_L1D TOTAL        ACCESS:   11021406 HIT:   10532439 MISS:     488967
cpu0_L1D LOAD         ACCESS:    5060974 HIT:    4869712 MISS:     191262
cpu0_L1D RFO          ACCESS:          0 HIT:          0 MISS:          0
cpu0_L1D PREFETCH     ACCESS:    4242374 HIT:    4035769 MISS:     206605
cpu0_L1D WRITE        ACCESS:    1700221 HIT:    1626391 MISS:      73830
cpu0_L1D TRANSLATION  ACCESS:      17837 HIT:        567 MISS:      17270
cpu0_L1D PREFETCH REQUESTED:    5073684 ISSUED:    4242373 USEFUL:      23208 USELESS:     118204
cpu0_L1D AVERAGE MISS LATENCY: 61.11 cycles
cpu0_L1I TOTAL        ACCESS:     214631 HIT:     214480 MISS:        151
cpu0_L1I LOAD         ACCESS:     214631 HIT:     214480 MISS:        151
cpu0_L1I RFO          ACCESS:          0 HIT:          0 MISS:          0
cpu0_L1I PREFETCH     ACCESS:          0 HIT:          0 MISS:          0
cpu0_L1I WRITE        ACCESS:          0 HIT:          0 MISS:          0
cpu0_L1I TRANSLATION  ACCESS:          0 HIT:          0 MISS:          0
cpu0_L1I PREFETCH REQUESTED:          0 ISSUED:          0 USEFUL:          0 USELESS:          0
cpu0_L1I AVERAGE MISS LATENCY: 31.74 cycles
cpu0_L2C TOTAL        ACCESS:     497261 HIT:     337375 MISS:     159886
cpu0_L2C LOAD         ACCESS:     134175 HIT:      70535 MISS:      63640
cpu0_L2C RFO          ACCESS:      49179 HIT:      37082 MISS:      12097
cpu0_L2C PREFETCH     ACCESS:     150352 HIT:      78737 MISS:      71615
cpu0_L2C WRITE        ACCESS:     146295 HIT:     146099 MISS:        196
cpu0_L2C TRANSLATION  ACCESS:      17260 HIT:       4922 MISS:      12338
cpu0_L2C PREFETCH REQUESTED:       8964 ISSUED:       8964 USEFUL:        912 USELESS:       1209
cpu0_L2C AVERAGE MISS LATENCY: 172.2 cycles
cpu0_STLB TOTAL        ACCESS:     144112 HIT:     126275 MISS:      17837
cpu0_STLB LOAD         ACCESS:     144112 HIT:     126275 MISS:      17837
cpu0_STLB RFO          ACCESS:          0 HIT:          0 MISS:          0
cpu0_STLB PREFETCH     ACCESS:          0 HIT:          0 MISS:          0
cpu0_STLB WRITE        ACCESS:          0 HIT:          0 MISS:          0
cpu0_STLB TRANSLATION  ACCESS:          0 HIT:          0 MISS:          0
cpu0_STLB PREFETCH REQUESTED:          0 ISSUED:          0 USEFUL:          0 USELESS:          0
cpu0_STLB AVERAGE MISS LATENCY: 93.88 cycles

DRAM Statistics

Channel 0 RQ ROW_BUFFER_HIT:       3070
  ROW_BUFFER_MISS:      82756
 AVG DBUS CONGESTED CYCLE: 3.96
WQ ROW_BUFFER_HIT: Channel 0 
  ROW_BUFFER_MISS:       5812
  FULL:      29024
