WARNING: physical memory size is smaller than virtual memory size.

*** ChampSim Multicore Out-of-Order Simulator ***
Warmup Instructions: 25000000
Simulation Instructions: 25000000
Number of CPUs: 1
Page size: 4096

Off-chip DRAM Size: 4 GiB Channels: 1 Width: 64-bit Data Race: 800 MT/s
Heartbeat CPU 0 instructions: 10000000 cycles: 2501568 heartbeat IPC: 3.997 cumulative IPC: 3.997 (Simulation time: 00 hr 00 min 27 sec)
Heartbeat CPU 0 instructions: 20000002 cycles: 5003051 heartbeat IPC: 3.998 cumulative IPC: 3.998 (Simulation time: 00 hr 00 min 54 sec)
Warmup finished CPU 0 instructions: 25000000 cycles: 6265429 cumulative IPC: 3.99 (Simulation time: 00 hr 01 min 08 sec)
Warmup complete CPU 0 instructions: 25000000 cycles: 6265429 cumulative IPC: 3.99 (Simulation time: 00 hr 01 min 08 sec)
Heartbeat CPU 0 instructions: 30000003 cycles: 11076180 heartbeat IPC: 1.647 cumulative IPC: 1.039 (Simulation time: 00 hr 01 min 37 sec)
Heartbeat CPU 0 instructions: 40000000 cycles: 20845744 heartbeat IPC: 1.024 cumulative IPC: 1.029 (Simulation time: 00 hr 02 min 35 sec)
Heartbeat CPU 0 instructions: 50000000 cycles: 31001064 heartbeat IPC: 0.9847 cumulative IPC: 1.011 (Simulation time: 00 hr 03 min 38 sec)
Simulation finished CPU 0 instructions: 25000000 cycles: 24735636 cumulative IPC: 1.011 (Simulation time: 00 hr 03 min 38 sec)
Simulation complete CPU 0 instructions: 25000000 cycles: 24735636 cumulative IPC: 1.011 (Simulation time: 00 hr 03 min 38 sec)

ChampSim completed all CPUs

=== Simulation ===
CPU 0 runs ./traces/657.xz_s-2302B.champsimtrace.xz
Region of Interest Statistics

CPU 0 cumulative IPC: 1.011 instructions: 25000000 cycles: 24735636
CPU 0 Branch Prediction Accuracy: 85.76% MPKI: 18.42 Average ROB Occupancy at Mispredict: 29.31
Branch type MPKI
BRANCH_DIRECT_JUMP: 0.122
BRANCH_INDIRECT: 1.07
BRANCH_CONDITIONAL: 17.2
BRANCH_DIRECT_CALL: 0
BRANCH_INDIRECT_CALL: 0.00356
BRANCH_RETURN: 0

LLC TOTAL        ACCESS:     309132 HIT:     168754 MISS:     140378
LLC LOAD         ACCESS:      97304 HIT:      50289 MISS:      47015
LLC RFO          ACCESS:       8327 HIT:       3969 MISS:       4358
LLC PREFETCH     ACCESS:     105608 HIT:      53271 MISS:      52337
LLC WRITE        ACCESS:      83362 HIT:      50558 MISS:      32804
LLC TRANSLATION  ACCESS:      14531 HIT:      10667 MISS:       3864
LLC PREFETCH REQUESTED:          0 ISSUED:          0 USEFUL:          0 USELESS:          0
LLC AVERAGE MISS LATENCY: 200.8 cycles
cpu0_DTLB TOTAL        ACCESS:    5602566 HIT:    5413427 MISS:     189139
cpu0_DTLB LOAD         ACCESS:    5602566 HIT:    5413427 MISS:     189139
cpu0_DTLB RFO          ACCESS:          0 HIT:          0 MISS:          0
cpu0_DTLB PREFETCH     ACCESS:          0 HIT:          0 MISS:          0
cpu0_DTLB WRITE        ACCESS:          0 HIT:          0 MISS:          0
cpu0_DTLB TRANSLATION  ACCESS:          0 HIT:          0 MISS:          0
cpu0_DTLB PREFETCH REQUESTED:          0 ISSUED:          0 USEFUL:          0 USELESS:          0
cpu0_DTLB AVERAGE MISS LATENCY: 15.13 cycles
cpu0_ITLB TOTAL        ACCESS:     224616 HIT:     224616 MISS:          0
cpu0_ITLB LOAD         ACCESS:     224616 HIT:     224616 MISS:          0
cpu0_ITLB RFO          ACCESS:          0 HIT:          0 MISS:          0
cpu0_ITLB PREFETCH     ACCESS:          0 HIT:          0 MISS:          0
cpu0_ITLB WRITE        ACCESS:          0 HIT:          0 MISS:          0
cpu0_ITLB TRANSLATION  ACCESS:          0 HIT:          0 MISS:          0
cpu0_ITLB PREFETCH REQUESTED:          0 ISSUED:          0 USEFUL:          0 USELESS:          0
cpu0_ITLB AVERAGE MISS LATENCY: -nan cycles
cpu0_L1D TOTAL        ACCESS:   11229964 HIT:   10682292 MISS:     547672
cpu0_L1D LOAD         ACCESS:    5034177 HIT:    4793989 MISS:     240188
cpu0_L1D RFO          ACCESS:          0 HIT:          0 MISS:          0
cpu0_L1D PREFETCH     ACCESS:    4209914 HIT:    3956308 MISS:     253606
cpu0_L1D WRITE        ACCESS:    1963726 HIT:    1931341 MISS:      32385
cpu0_L1D TRANSLATION  ACCESS:      22147 HIT:        654 MISS:      21493
cpu0_L1D PREFETCH REQUESTED:    5046254 ISSUED:    4209915 USEFUL:      26070 USELESS:     146543
cpu0_L1D AVERAGE MISS LATENCY: 66.12 cycles
cpu0_L1I TOTAL        ACCESS:     276639 HIT:     276581 MISS:         58
cpu0_L1I LOAD         ACCESS:     276639 HIT:     276581 MISS:         58
cpu0_L1I RFO          ACCESS:          0 HIT:          0 MISS:          0
cpu0_L1I PREFETCH     ACCESS:          0 HIT:          0 MISS:          0
cpu0_L1I WRITE        ACCESS:          0 HIT:          0 MISS:          0
cpu0_L1I TRANSLATION  ACCESS:          0 HIT:          0 MISS:          0
cpu0_L1I PREFETCH REQUESTED:          0 ISSUED:          0 USEFUL:          0 USELESS:          0
cpu0_L1I AVERAGE MISS LATENCY: 140.6 cycles
cpu0_L2C TOTAL        ACCESS:     519827 HIT:     292635 MISS:     227192
cpu0_L2C LOAD         ACCESS:     164790 HIT:      67433 MISS:      97357
cpu0_L2C RFO          ACCESS:      23235 HIT:      14908 MISS:       8327
cpu0_L2C PREFETCH     ACCESS:     178403 HIT:      71933 MISS:     106470
cpu0_L2C WRITE        ACCESS:     131918 HIT:     131411 MISS:        507
cpu0_L2C TRANSLATION  ACCESS:      21481 HIT:       6950 MISS:      14531
cpu0_L2C PREFETCH REQUESTED:       5770 ISSUED:       5770 USEFUL:        437 USELESS:        928
cpu0_L2C AVERAGE MISS LATENCY: 144.3 cycles
cpu0_STLB TOTAL        ACCESS:     148473 HIT:     126334 MISS:      22139
cpu0_STLB LOAD         ACCESS:     148473 HIT:     126334 MISS:      22139
cpu0_STLB RFO          ACCESS:          0 HIT:          0 MISS:          0
cpu0_STLB PREFETCH     ACCESS:          0 HIT:          0 MISS:          0
cpu0_STLB WRITE        ACCESS:          0 HIT:          0 MISS:          0
cpu0_STLB TRANSLATION  ACCESS:          0 HIT:          0 MISS:          0
cpu0_STLB PREFETCH REQUESTED:          0 ISSUED:          0 USEFUL:          0 USELESS:          0
cpu0_STLB AVERAGE MISS LATENCY: 80.54 cycles

DRAM Statistics

Channel 0 RQ ROW_BUFFER_HIT:       2143
  ROW_BUFFER_MISS:     105381
 AVG DBUS CONGESTED CYCLE: 3.951
WQ ROW_BUFFER_HIT: Channel 0 
  ROW_BUFFER_MISS:      10038
  FULL:      38324
