WARNING: physical memory size is smaller than virtual memory size.

*** ChampSim Multicore Out-of-Order Simulator ***
Warmup Instructions: 25000000
Simulation Instructions: 25000000
Number of CPUs: 1
Page size: 4096

Off-chip DRAM Size: 4 GiB Channels: 1 Width: 64-bit Data Race: 800 MT/s
Heartbeat CPU 0 instructions: 10000001 cycles: 2535625 heartbeat IPC: 3.944 cumulative IPC: 3.944 (Simulation time: 00 hr 00 min 36 sec)
Heartbeat CPU 0 instructions: 20000003 cycles: 5066545 heartbeat IPC: 3.951 cumulative IPC: 3.947 (Simulation time: 00 hr 01 min 14 sec)
Warmup finished CPU 0 instructions: 25000003 cycles: 6333736 cumulative IPC: 3.947 (Simulation time: 00 hr 01 min 32 sec)
Warmup complete CPU 0 instructions: 25000003 cycles: 6333736 cumulative IPC: 3.947 (Simulation time: 00 hr 01 min 32 sec)
Heartbeat CPU 0 instructions: 30000000 cycles: 9064507 heartbeat IPC: 2.501 cumulative IPC: 1.831 (Simulation time: 00 hr 02 min 06 sec)
Heartbeat CPU 0 instructions: 40000000 cycles: 15164793 heartbeat IPC: 1.639 cumulative IPC: 1.699 (Simulation time: 00 hr 03 min 19 sec)
Heartbeat CPU 0 instructions: 50000002 cycles: 21659590 heartbeat IPC: 1.54 cumulative IPC: 1.631 (Simulation time: 00 hr 04 min 29 sec)
Simulation finished CPU 0 instructions: 25000002 cycles: 15325856 cumulative IPC: 1.631 (Simulation time: 00 hr 04 min 29 sec)
Simulation complete CPU 0 instructions: 25000002 cycles: 15325856 cumulative IPC: 1.631 (Simulation time: 00 hr 04 min 29 sec)

ChampSim completed all CPUs

=== Simulation ===
CPU 0 runs ./traces/bzip2_259B.trace.xz
Region of Interest Statistics

CPU 0 cumulative IPC: 1.631 instructions: 25000002 cycles: 15325856
CPU 0 Branch Prediction Accuracy: 90.27% MPKI: 17.81 Average ROB Occupancy at Mispredict: 18.99
Branch type MPKI
BRANCH_DIRECT_JUMP: 0.034
BRANCH_INDIRECT: 0.0166
BRANCH_CONDITIONAL: 17.8
BRANCH_DIRECT_CALL: 4e-05
BRANCH_INDIRECT_CALL: 0
BRANCH_RETURN: 4e-05

LLC TOTAL        ACCESS:     245294 HIT:     175612 MISS:      69682
LLC LOAD         ACCESS:      79246 HIT:      62455 MISS:      16791
LLC RFO          ACCESS:      25437 HIT:      12163 MISS:      13274
LLC PREFETCH     ACCESS:     117425 HIT:      83900 MISS:      33525
LLC WRITE        ACCESS:      23155 HIT:      17077 MISS:       6078
LLC TRANSLATION  ACCESS:         31 HIT:         17 MISS:         14
LLC PREFETCH REQUESTED:          0 ISSUED:          0 USEFUL:          0 USELESS:          0
LLC AVERAGE MISS LATENCY: 360.9 cycles
cpu0_DTLB TOTAL        ACCESS:    5485358 HIT:    5328151 MISS:     157207
cpu0_DTLB LOAD         ACCESS:    5485358 HIT:    5328151 MISS:     157207
cpu0_DTLB RFO          ACCESS:          0 HIT:          0 MISS:          0
cpu0_DTLB PREFETCH     ACCESS:          0 HIT:          0 MISS:          0
cpu0_DTLB WRITE        ACCESS:          0 HIT:          0 MISS:          0
cpu0_DTLB TRANSLATION  ACCESS:          0 HIT:          0 MISS:          0
cpu0_DTLB PREFETCH REQUESTED:          0 ISSUED:          0 USEFUL:          0 USELESS:          0
cpu0_DTLB AVERAGE MISS LATENCY: 7.977 cycles
cpu0_ITLB TOTAL        ACCESS:        605 HIT:        603 MISS:          2
cpu0_ITLB LOAD         ACCESS:        605 HIT:        603 MISS:          2
cpu0_ITLB RFO          ACCESS:          0 HIT:          0 MISS:          0
cpu0_ITLB PREFETCH     ACCESS:          0 HIT:          0 MISS:          0
cpu0_ITLB WRITE        ACCESS:          0 HIT:          0 MISS:          0
cpu0_ITLB TRANSLATION  ACCESS:          0 HIT:          0 MISS:          0
cpu0_ITLB PREFETCH REQUESTED:          0 ISSUED:          0 USEFUL:          0 USELESS:          0
cpu0_ITLB AVERAGE MISS LATENCY: 171.5 cycles
cpu0_L1D TOTAL        ACCESS:    9838887 HIT:    9205642 MISS:     633245
cpu0_L1D LOAD         ACCESS:    3613839 HIT:    3448567 MISS:     165272
cpu0_L1D RFO          ACCESS:          0 HIT:          0 MISS:          0
cpu0_L1D PREFETCH     ACCESS:    3515590 HIT:    3313203 MISS:     202387
cpu0_L1D WRITE        ACCESS:    2709344 HIT:    2443852 MISS:     265492
cpu0_L1D TRANSLATION  ACCESS:        114 HIT:         20 MISS:         94
cpu0_L1D PREFETCH REQUESTED:    3680233 ISSUED:    3515589 USEFUL:      42200 USELESS:     145937
cpu0_L1D AVERAGE MISS LATENCY: 50.66 cycles
cpu0_L1I TOTAL        ACCESS:        671 HIT:        527 MISS:        144
cpu0_L1I LOAD         ACCESS:        671 HIT:        527 MISS:        144
cpu0_L1I RFO          ACCESS:          0 HIT:          0 MISS:          0
cpu0_L1I PREFETCH     ACCESS:          0 HIT:          0 MISS:          0
cpu0_L1I WRITE        ACCESS:          0 HIT:          0 MISS:          0
cpu0_L1I TRANSLATION  ACCESS:          0 HIT:          0 MISS:          0
cpu0_L1I PREFETCH REQUESTED:          0 ISSUED:          0 USEFUL:          0 USELESS:          0
cpu0_L1I AVERAGE MISS LATENCY: 179.9 cycles
cpu0_L2C TOTAL        ACCESS:     423276 HIT:     198988 MISS:     224288
cpu0_L2C LOAD         ACCESS:     154949 HIT:      75420 MISS:      79529
cpu0_L2C RFO          ACCESS:      31535 HIT:       6098 MISS:      25437
cpu0_L2C PREFETCH     ACCESS:     203951 HIT:      84674 MISS:     119277
cpu0_L2C WRITE        ACCESS:      32747 HIT:      32733 MISS:         14
cpu0_L2C TRANSLATION  ACCESS:         94 HIT:         63 MISS:         31
cpu0_L2C PREFETCH REQUESTED:      15923 ISSUED:      15923 USEFUL:        618 USELESS:        372
cpu0_L2C AVERAGE MISS LATENCY: 132.2 cycles
cpu0_STLB TOTAL        ACCESS:     153955 HIT:     153841 MISS:        114
cpu0_STLB LOAD         ACCESS:     153955 HIT:     153841 MISS:        114
cpu0_STLB RFO          ACCESS:          0 HIT:          0 MISS:          0
cpu0_STLB PREFETCH     ACCESS:          0 HIT:          0 MISS:          0
cpu0_STLB WRITE        ACCESS:          0 HIT:          0 MISS:          0
cpu0_STLB TRANSLATION  ACCESS:          0 HIT:          0 MISS:          0
cpu0_STLB PREFETCH REQUESTED:          0 ISSUED:          0 USEFUL:          0 USELESS:          0
cpu0_STLB AVERAGE MISS LATENCY: 293.4 cycles

DRAM Statistics

Channel 0 RQ ROW_BUFFER_HIT:      12201
  ROW_BUFFER_MISS:      51194
 AVG DBUS CONGESTED CYCLE: 3.917
WQ ROW_BUFFER_HIT: Channel 0 
  ROW_BUFFER_MISS:       2135
  FULL:      11503
