WARNING: physical memory size is smaller than virtual memory size.

*** ChampSim Multicore Out-of-Order Simulator ***
Warmup Instructions: 25000000
Simulation Instructions: 25000000
Number of CPUs: 1
Page size: 4096

Off-chip DRAM Size: 4 GiB Channels: 1 Width: 64-bit Data Race: 800 MT/s
Heartbeat CPU 0 instructions: 10000000 cycles: 2510846 heartbeat IPC: 3.983 cumulative IPC: 3.983 (Simulation time: 00 hr 00 min 47 sec)
Heartbeat CPU 0 instructions: 20000002 cycles: 5069483 heartbeat IPC: 3.908 cumulative IPC: 3.945 (Simulation time: 00 hr 01 min 38 sec)
Warmup finished CPU 0 instructions: 25000003 cycles: 6384568 cumulative IPC: 3.916 (Simulation time: 00 hr 02 min 05 sec)
Warmup complete CPU 0 instructions: 25000003 cycles: 6384568 cumulative IPC: 3.916 (Simulation time: 00 hr 02 min 05 sec)
Heartbeat CPU 0 instructions: 30000002 cycles: 8380048 heartbeat IPC: 3.021 cumulative IPC: 2.506 (Simulation time: 00 hr 02 min 42 sec)
Heartbeat CPU 0 instructions: 40000001 cycles: 18532284 heartbeat IPC: 0.985 cumulative IPC: 1.235 (Simulation time: 00 hr 04 min 51 sec)
Heartbeat CPU 0 instructions: 50000003 cycles: 27852370 heartbeat IPC: 1.073 cumulative IPC: 1.165 (Simulation time: 00 hr 06 min 45 sec)
Simulation finished CPU 0 instructions: 25000000 cycles: 21467803 cumulative IPC: 1.165 (Simulation time: 00 hr 06 min 45 sec)
Simulation complete CPU 0 instructions: 25000000 cycles: 21467803 cumulative IPC: 1.165 (Simulation time: 00 hr 06 min 45 sec)

ChampSim completed all CPUs

=== Simulation ===
CPU 0 runs ./traces/cactusADM_1039B.trace.xz
Region of Interest Statistics

CPU 0 cumulative IPC: 1.165 instructions: 25000000 cycles: 21467803
CPU 0 Branch Prediction Accuracy: 98.22% MPKI: 0.03732 Average ROB Occupancy at Mispredict: 275.4
Branch type MPKI
BRANCH_DIRECT_JUMP: 0
BRANCH_INDIRECT: 0
BRANCH_CONDITIONAL: 0.0373
BRANCH_DIRECT_CALL: 0
BRANCH_INDIRECT_CALL: 0
BRANCH_RETURN: 0

LLC TOTAL        ACCESS:     312389 HIT:      67699 MISS:     244690
LLC LOAD         ACCESS:      34395 HIT:       7936 MISS:      26459
LLC RFO          ACCESS:      67006 HIT:      10805 MISS:      56201
LLC PREFETCH     ACCESS:     134355 HIT:      30642 MISS:     103713
LLC WRITE        ACCESS:      65946 HIT:      18263 MISS:      47683
LLC TRANSLATION  ACCESS:      10687 HIT:         53 MISS:      10634
LLC PREFETCH REQUESTED:          0 ISSUED:          0 USEFUL:          0 USELESS:          0
LLC AVERAGE MISS LATENCY: 830.4 cycles
cpu0_DTLB TOTAL        ACCESS:    5845404 HIT:    5254750 MISS:     590654
cpu0_DTLB LOAD         ACCESS:    5845404 HIT:    5254750 MISS:     590654
cpu0_DTLB RFO          ACCESS:          0 HIT:          0 MISS:          0
cpu0_DTLB PREFETCH     ACCESS:          0 HIT:          0 MISS:          0
cpu0_DTLB WRITE        ACCESS:          0 HIT:          0 MISS:          0
cpu0_DTLB TRANSLATION  ACCESS:          0 HIT:          0 MISS:          0
cpu0_DTLB PREFETCH REQUESTED:          0 ISSUED:          0 USEFUL:          0 USELESS:          0
cpu0_DTLB AVERAGE MISS LATENCY: 28.56 cycles
cpu0_ITLB TOTAL        ACCESS:    3534190 HIT:    3534190 MISS:          0
cpu0_ITLB LOAD         ACCESS:    3534190 HIT:    3534190 MISS:          0
cpu0_ITLB RFO          ACCESS:          0 HIT:          0 MISS:          0
cpu0_ITLB PREFETCH     ACCESS:          0 HIT:          0 MISS:          0
cpu0_ITLB WRITE        ACCESS:          0 HIT:          0 MISS:          0
cpu0_ITLB TRANSLATION  ACCESS:          0 HIT:          0 MISS:          0
cpu0_ITLB PREFETCH REQUESTED:          0 ISSUED:          0 USEFUL:          0 USELESS:          0
cpu0_ITLB AVERAGE MISS LATENCY: -nan cycles
cpu0_L1D TOTAL        ACCESS:    9848422 HIT:    9052760 MISS:     795662
cpu0_L1D LOAD         ACCESS:    5762669 HIT:    5526420 MISS:     236249
cpu0_L1D RFO          ACCESS:          0 HIT:          0 MISS:          0
cpu0_L1D PREFETCH     ACCESS:     932391 HIT:     804042 MISS:     128349
cpu0_L1D WRITE        ACCESS:    2916002 HIT:    2609926 MISS:     306076
cpu0_L1D TRANSLATION  ACCESS:     237360 HIT:     112372 MISS:     124988
cpu0_L1D PREFETCH REQUESTED:    6258711 ISSUED:     932390 USEFUL:      88494 USELESS:       3411
cpu0_L1D AVERAGE MISS LATENCY: 174.1 cycles
cpu0_L1I TOTAL        ACCESS:    4638071 HIT:    4638071 MISS:          0
cpu0_L1I LOAD         ACCESS:    4638071 HIT:    4638071 MISS:          0
cpu0_L1I RFO          ACCESS:          0 HIT:          0 MISS:          0
cpu0_L1I PREFETCH     ACCESS:          0 HIT:          0 MISS:          0
cpu0_L1I WRITE        ACCESS:          0 HIT:          0 MISS:          0
cpu0_L1I TRANSLATION  ACCESS:          0 HIT:          0 MISS:          0
cpu0_L1I PREFETCH REQUESTED:          0 ISSUED:          0 USEFUL:          0 USELESS:          0
cpu0_L1I AVERAGE MISS LATENCY: -nan cycles
cpu0_L2C TOTAL        ACCESS:     876231 HIT:     626487 MISS:     249744
cpu0_L2C LOAD         ACCESS:     198446 HIT:     163439 MISS:      35007
cpu0_L2C RFO          ACCESS:      68908 HIT:       1902 MISS:      67006
cpu0_L2C PREFETCH     ACCESS:     413067 HIT:     276119 MISS:     136948
cpu0_L2C WRITE        ACCESS:      70890 HIT:      70794 MISS:         96
cpu0_L2C TRANSLATION  ACCESS:     124920 HIT:     114233 MISS:      10687
cpu0_L2C PREFETCH REQUESTED:     321216 ISSUED:     321158 USEFUL:      71904 USELESS:        396
cpu0_L2C AVERAGE MISS LATENCY: 801.1 cycles
cpu0_STLB TOTAL        ACCESS:     434352 HIT:     306631 MISS:     127721
cpu0_STLB LOAD         ACCESS:     434352 HIT:     306631 MISS:     127721
cpu0_STLB RFO          ACCESS:          0 HIT:          0 MISS:          0
cpu0_STLB PREFETCH     ACCESS:          0 HIT:          0 MISS:          0
cpu0_STLB WRITE        ACCESS:          0 HIT:          0 MISS:          0
cpu0_STLB TRANSLATION  ACCESS:          0 HIT:          0 MISS:          0
cpu0_STLB PREFETCH REQUESTED:          0 ISSUED:          0 USEFUL:          0 USELESS:          0
cpu0_STLB AVERAGE MISS LATENCY: 143.8 cycles

DRAM Statistics

Channel 0 RQ ROW_BUFFER_HIT:      30546
  ROW_BUFFER_MISS:     163650
 AVG DBUS CONGESTED CYCLE: 3.925
WQ ROW_BUFFER_HIT: Channel 0 
  ROW_BUFFER_MISS:       3253
  FULL:      51893
