WARNING: physical memory size is smaller than virtual memory size.

*** ChampSim Multicore Out-of-Order Simulator ***
Warmup Instructions: 25000000
Simulation Instructions: 25000000
Number of CPUs: 1
Page size: 4096

Off-chip DRAM Size: 4 GiB Channels: 1 Width: 64-bit Data Race: 800 MT/s
Heartbeat CPU 0 instructions: 10000003 cycles: 2534757 heartbeat IPC: 3.945 cumulative IPC: 3.945 (Simulation time: 00 hr 00 min 35 sec)
Heartbeat CPU 0 instructions: 20000001 cycles: 5035064 heartbeat IPC: 4 cumulative IPC: 3.972 (Simulation time: 00 hr 01 min 10 sec)
Warmup finished CPU 0 instructions: 25000003 cycles: 6285146 cumulative IPC: 3.978 (Simulation time: 00 hr 01 min 27 sec)
Warmup complete CPU 0 instructions: 25000003 cycles: 6285146 cumulative IPC: 3.978 (Simulation time: 00 hr 01 min 27 sec)
Heartbeat CPU 0 instructions: 30000001 cycles: 7786290 heartbeat IPC: 3.635 cumulative IPC: 3.331 (Simulation time: 00 hr 01 min 50 sec)
Heartbeat CPU 0 instructions: 40000000 cycles: 11320073 heartbeat IPC: 2.83 cumulative IPC: 2.979 (Simulation time: 00 hr 02 min 44 sec)
Heartbeat CPU 0 instructions: 50000003 cycles: 16053480 heartbeat IPC: 2.113 cumulative IPC: 2.559 (Simulation time: 00 hr 03 min 48 sec)
Simulation finished CPU 0 instructions: 25000000 cycles: 9768335 cumulative IPC: 2.559 (Simulation time: 00 hr 03 min 48 sec)
Simulation complete CPU 0 instructions: 25000000 cycles: 9768335 cumulative IPC: 2.559 (Simulation time: 00 hr 03 min 48 sec)

ChampSim completed all CPUs

=== Simulation ===
CPU 0 runs ./traces/calculix_3812B.trace.xz
Region of Interest Statistics

CPU 0 cumulative IPC: 2.559 instructions: 25000000 cycles: 9768335
CPU 0 Branch Prediction Accuracy: 97.86% MPKI: 1.848 Average ROB Occupancy at Mispredict: 141
Branch type MPKI
BRANCH_DIRECT_JUMP: 0.0127
BRANCH_INDIRECT: 0.00208
BRANCH_CONDITIONAL: 1.83
BRANCH_DIRECT_CALL: 0.00068
BRANCH_INDIRECT_CALL: 0
BRANCH_RETURN: 0.00076

LLC TOTAL        ACCESS:     239095 HIT:     179868 MISS:      59227
LLC LOAD         ACCESS:      15675 HIT:      11718 MISS:       3957
LLC RFO          ACCESS:      28203 HIT:       5337 MISS:      22866
LLC PREFETCH     ACCESS:      88720 HIT:      73822 MISS:      14898
LLC WRITE        ACCESS:     106420 HIT:      88957 MISS:      17463
LLC TRANSLATION  ACCESS:         77 HIT:         34 MISS:         43
LLC PREFETCH REQUESTED:          0 ISSUED:          0 USEFUL:          0 USELESS:          0
LLC AVERAGE MISS LATENCY: 638 cycles
cpu0_DTLB TOTAL        ACCESS:    5003152 HIT:    4982244 MISS:      20908
cpu0_DTLB LOAD         ACCESS:    5003152 HIT:    4982244 MISS:      20908
cpu0_DTLB RFO          ACCESS:          0 HIT:          0 MISS:          0
cpu0_DTLB PREFETCH     ACCESS:          0 HIT:          0 MISS:          0
cpu0_DTLB WRITE        ACCESS:          0 HIT:          0 MISS:          0
cpu0_DTLB TRANSLATION  ACCESS:          0 HIT:          0 MISS:          0
cpu0_DTLB PREFETCH REQUESTED:          0 ISSUED:          0 USEFUL:          0 USELESS:          0
cpu0_DTLB AVERAGE MISS LATENCY: 9.494 cycles
cpu0_ITLB TOTAL        ACCESS:      22167 HIT:      22125 MISS:         42
cpu0_ITLB LOAD         ACCESS:      22167 HIT:      22125 MISS:         42
cpu0_ITLB RFO          ACCESS:          0 HIT:          0 MISS:          0
cpu0_ITLB PREFETCH     ACCESS:          0 HIT:          0 MISS:          0
cpu0_ITLB WRITE        ACCESS:          0 HIT:          0 MISS:          0
cpu0_ITLB TRANSLATION  ACCESS:          0 HIT:          0 MISS:          0
cpu0_ITLB PREFETCH REQUESTED:          0 ISSUED:          0 USEFUL:          0 USELESS:          0
cpu0_ITLB AVERAGE MISS LATENCY: 3.095 cycles
cpu0_L1D TOTAL        ACCESS:    9037359 HIT:    7668805 MISS:    1368554
cpu0_L1D LOAD         ACCESS:    4444942 HIT:    3495006 MISS:     949936
cpu0_L1D RFO          ACCESS:          0 HIT:          0 MISS:          0
cpu0_L1D PREFETCH     ACCESS:    2224698 HIT:    1963608 MISS:     261090
cpu0_L1D WRITE        ACCESS:    2367221 HIT:    2209833 MISS:     157388
cpu0_L1D TRANSLATION  ACCESS:        498 HIT:        358 MISS:        140
cpu0_L1D PREFETCH REQUESTED:    4467312 ISSUED:    2224703 USEFUL:     106210 USELESS:      11719
cpu0_L1D AVERAGE MISS LATENCY: 27.34 cycles
cpu0_L1I TOTAL        ACCESS:      24878 HIT:      23438 MISS:       1440
cpu0_L1I LOAD         ACCESS:      24878 HIT:      23438 MISS:       1440
cpu0_L1I RFO          ACCESS:          0 HIT:          0 MISS:          0
cpu0_L1I PREFETCH     ACCESS:          0 HIT:          0 MISS:          0
cpu0_L1I WRITE        ACCESS:          0 HIT:          0 MISS:          0
cpu0_L1I TRANSLATION  ACCESS:          0 HIT:          0 MISS:          0
cpu0_L1I PREFETCH REQUESTED:          0 ISSUED:          0 USEFUL:          0 USELESS:          0
cpu0_L1I AVERAGE MISS LATENCY: 39.23 cycles
cpu0_L2C TOTAL        ACCESS:    1266952 HIT:    1027118 MISS:     239834
cpu0_L2C LOAD         ACCESS:     257240 HIT:     229809 MISS:      27431
cpu0_L2C RFO          ACCESS:      32302 HIT:       4099 MISS:      28203
cpu0_L2C PREFETCH     ACCESS:     706836 HIT:     524485 MISS:     182351
cpu0_L2C WRITE        ACCESS:     270434 HIT:     268662 MISS:       1772
cpu0_L2C TRANSLATION  ACCESS:        140 HIT:         63 MISS:         77
cpu0_L2C PREFETCH REQUESTED:     589076 ISSUED:     588902 USEFUL:      59192 USELESS:       1220
cpu0_L2C AVERAGE MISS LATENCY: 167.7 cycles
cpu0_STLB TOTAL        ACCESS:      11542 HIT:      11046 MISS:        496
cpu0_STLB LOAD         ACCESS:      11542 HIT:      11046 MISS:        496
cpu0_STLB RFO          ACCESS:          0 HIT:          0 MISS:          0
cpu0_STLB PREFETCH     ACCESS:          0 HIT:          0 MISS:          0
cpu0_STLB WRITE        ACCESS:          0 HIT:          0 MISS:          0
cpu0_STLB TRANSLATION  ACCESS:          0 HIT:          0 MISS:          0
cpu0_STLB PREFETCH REQUESTED:          0 ISSUED:          0 USEFUL:          0 USELESS:          0
cpu0_STLB AVERAGE MISS LATENCY: 284.2 cycles

DRAM Statistics

Channel 0 RQ ROW_BUFFER_HIT:      24025
  ROW_BUFFER_MISS:      17407
 AVG DBUS CONGESTED CYCLE: 3.953
WQ ROW_BUFFER_HIT: Channel 0 
  ROW_BUFFER_MISS:       4343
  FULL:      18647
