WARNING: physical memory size is smaller than virtual memory size.

*** ChampSim Multicore Out-of-Order Simulator ***
Warmup Instructions: 25000000
Simulation Instructions: 25000000
Number of CPUs: 1
Page size: 4096

Off-chip DRAM Size: 4 GiB Channels: 1 Width: 64-bit Data Race: 800 MT/s
Heartbeat CPU 0 instructions: 10000000 cycles: 2500632 heartbeat IPC: 3.999 cumulative IPC: 3.999 (Simulation time: 00 hr 00 min 43 sec)
Heartbeat CPU 0 instructions: 20000000 cycles: 5000632 heartbeat IPC: 4 cumulative IPC: 3.999 (Simulation time: 00 hr 01 min 29 sec)
Warmup finished CPU 0 instructions: 25000000 cycles: 6251046 cumulative IPC: 3.999 (Simulation time: 00 hr 01 min 53 sec)
Warmup complete CPU 0 instructions: 25000000 cycles: 6251046 cumulative IPC: 3.999 (Simulation time: 00 hr 01 min 53 sec)
Heartbeat CPU 0 instructions: 30000003 cycles: 7704002 heartbeat IPC: 3.699 cumulative IPC: 3.441 (Simulation time: 00 hr 02 min 23 sec)
Heartbeat CPU 0 instructions: 40000001 cycles: 12049688 heartbeat IPC: 2.301 cumulative IPC: 2.587 (Simulation time: 00 hr 03 min 41 sec)
Heartbeat CPU 0 instructions: 50000002 cycles: 17401922 heartbeat IPC: 1.868 cumulative IPC: 2.242 (Simulation time: 00 hr 05 min 00 sec)
Simulation finished CPU 0 instructions: 25000002 cycles: 11150877 cumulative IPC: 2.242 (Simulation time: 00 hr 05 min 00 sec)
Simulation complete CPU 0 instructions: 25000002 cycles: 11150877 cumulative IPC: 2.242 (Simulation time: 00 hr 05 min 00 sec)

ChampSim completed all CPUs

=== Simulation ===
CPU 0 runs ./traces/hmmer_7B.trace.xz
Region of Interest Statistics

CPU 0 cumulative IPC: 2.242 instructions: 25000002 cycles: 11150877
CPU 0 Branch Prediction Accuracy: 99.03% MPKI: 0.3745 Average ROB Occupancy at Mispredict: 212.9
Branch type MPKI
BRANCH_DIRECT_JUMP: 0.00052
BRANCH_INDIRECT: 0.00224
BRANCH_CONDITIONAL: 0.37
BRANCH_DIRECT_CALL: 0.00036
BRANCH_INDIRECT_CALL: 8e-05
BRANCH_RETURN: 0.00108

LLC TOTAL        ACCESS:     153363 HIT:      73926 MISS:      79437
LLC LOAD         ACCESS:       2243 HIT:       1117 MISS:       1126
LLC RFO          ACCESS:      71920 HIT:      32626 MISS:      39294
LLC PREFETCH     ACCESS:       7142 HIT:       4114 MISS:       3028
LLC WRITE        ACCESS:      72046 HIT:      36066 MISS:      35980
LLC TRANSLATION  ACCESS:         12 HIT:          3 MISS:          9
LLC PREFETCH REQUESTED:          0 ISSUED:          0 USEFUL:          0 USELESS:          0
LLC AVERAGE MISS LATENCY: 1205 cycles
cpu0_DTLB TOTAL        ACCESS:    5855135 HIT:    5848868 MISS:       6267
cpu0_DTLB LOAD         ACCESS:    5855135 HIT:    5848868 MISS:       6267
cpu0_DTLB RFO          ACCESS:          0 HIT:          0 MISS:          0
cpu0_DTLB PREFETCH     ACCESS:          0 HIT:          0 MISS:          0
cpu0_DTLB WRITE        ACCESS:          0 HIT:          0 MISS:          0
cpu0_DTLB TRANSLATION  ACCESS:          0 HIT:          0 MISS:          0
cpu0_DTLB PREFETCH REQUESTED:          0 ISSUED:          0 USEFUL:          0 USELESS:          0
cpu0_DTLB AVERAGE MISS LATENCY: 4.791 cycles
cpu0_ITLB TOTAL        ACCESS:       3191 HIT:       3107 MISS:         84
cpu0_ITLB LOAD         ACCESS:       3191 HIT:       3107 MISS:         84
cpu0_ITLB RFO          ACCESS:          0 HIT:          0 MISS:          0
cpu0_ITLB PREFETCH     ACCESS:          0 HIT:          0 MISS:          0
cpu0_ITLB WRITE        ACCESS:          0 HIT:          0 MISS:          0
cpu0_ITLB TRANSLATION  ACCESS:          0 HIT:          0 MISS:          0
cpu0_ITLB PREFETCH REQUESTED:          0 ISSUED:          0 USEFUL:          0 USELESS:          0
cpu0_ITLB AVERAGE MISS LATENCY: 19.99 cycles
cpu0_L1D TOTAL        ACCESS:    8588343 HIT:    6472114 MISS:    2116229
cpu0_L1D LOAD         ACCESS:    4561935 HIT:    4482984 MISS:      78951
cpu0_L1D RFO          ACCESS:          0 HIT:          0 MISS:          0
cpu0_L1D PREFETCH     ACCESS:     320608 HIT:     291895 MISS:      28713
cpu0_L1D WRITE        ACCESS:    3705781 HIT:    1697234 MISS:    2008547
cpu0_L1D TRANSLATION  ACCESS:         19 HIT:          1 MISS:         18
cpu0_L1D PREFETCH REQUESTED:    5527396 ISSUED:     320604 USEFUL:       6533 USELESS:       3069
cpu0_L1D AVERAGE MISS LATENCY: 36.19 cycles
cpu0_L1I TOTAL        ACCESS:       3567 HIT:       3421 MISS:        146
cpu0_L1I LOAD         ACCESS:       3567 HIT:       3421 MISS:        146
cpu0_L1I RFO          ACCESS:          0 HIT:          0 MISS:          0
cpu0_L1I PREFETCH     ACCESS:          0 HIT:          0 MISS:          0
cpu0_L1I WRITE        ACCESS:          0 HIT:          0 MISS:          0
cpu0_L1I TRANSLATION  ACCESS:          0 HIT:          0 MISS:          0
cpu0_L1I PREFETCH REQUESTED:          0 ISSUED:          0 USEFUL:          0 USELESS:          0
cpu0_L1I AVERAGE MISS LATENCY: 94.32 cycles
cpu0_L2C TOTAL        ACCESS:     336862 HIT:     254763 MISS:      82099
cpu0_L2C LOAD         ACCESS:      59980 HIT:      57632 MISS:       2348
cpu0_L2C RFO          ACCESS:      75577 HIT:       3657 MISS:      71920
cpu0_L2C PREFETCH     ACCESS:     125507 HIT:     117700 MISS:       7807
cpu0_L2C WRITE        ACCESS:      75780 HIT:      75768 MISS:         12
cpu0_L2C TRANSLATION  ACCESS:         18 HIT:          6 MISS:         12
cpu0_L2C PREFETCH REQUESTED:     115902 ISSUED:     115902 USEFUL:       3795 USELESS:        220
cpu0_L2C AVERAGE MISS LATENCY: 1184 cycles
cpu0_STLB TOTAL        ACCESS:       3592 HIT:       3573 MISS:         19
cpu0_STLB LOAD         ACCESS:       3592 HIT:       3573 MISS:         19
cpu0_STLB RFO          ACCESS:          0 HIT:          0 MISS:          0
cpu0_STLB PREFETCH     ACCESS:          0 HIT:          0 MISS:          0
cpu0_STLB WRITE        ACCESS:          0 HIT:          0 MISS:          0
cpu0_STLB TRANSLATION  ACCESS:          0 HIT:          0 MISS:          0
cpu0_STLB PREFETCH REQUESTED:          0 ISSUED:          0 USEFUL:          0 USELESS:          0
cpu0_STLB AVERAGE MISS LATENCY: 879.1 cycles

DRAM Statistics

Channel 0 RQ ROW_BUFFER_HIT:      18506
  ROW_BUFFER_MISS:      24903
 AVG DBUS CONGESTED CYCLE: 3.925
WQ ROW_BUFFER_HIT: Channel 0 
  ROW_BUFFER_MISS:      12105
  FULL:      26165
