WARNING: physical memory size is smaller than virtual memory size.

*** ChampSim Multicore Out-of-Order Simulator ***
Warmup Instructions: 25000000
Simulation Instructions: 25000000
Number of CPUs: 1
Page size: 4096

Off-chip DRAM Size: 4 GiB Channels: 1 Width: 64-bit Data Race: 800 MT/s
Heartbeat CPU 0 instructions: 10000000 cycles: 2609905 heartbeat IPC: 3.832 cumulative IPC: 3.832 (Simulation time: 00 hr 00 min 40 sec)
Heartbeat CPU 0 instructions: 20000000 cycles: 5187966 heartbeat IPC: 3.879 cumulative IPC: 3.855 (Simulation time: 00 hr 01 min 22 sec)
Warmup finished CPU 0 instructions: 25000000 cycles: 6484188 cumulative IPC: 3.856 (Simulation time: 00 hr 01 min 44 sec)
Warmup complete CPU 0 instructions: 25000000 cycles: 6484188 cumulative IPC: 3.856 (Simulation time: 00 hr 01 min 44 sec)
Heartbeat CPU 0 instructions: 30000001 cycles: 33027851 heartbeat IPC: 0.3592 cumulative IPC: 0.1884 (Simulation time: 00 hr 05 min 29 sec)
Heartbeat CPU 0 instructions: 40000003 cycles: 87145156 heartbeat IPC: 0.1848 cumulative IPC: 0.186 (Simulation time: 00 hr 13 min 01 sec)
Heartbeat CPU 0 instructions: 50000001 cycles: 139667718 heartbeat IPC: 0.1904 cumulative IPC: 0.1877 (Simulation time: 00 hr 20 min 27 sec)
Simulation finished CPU 0 instructions: 25000001 cycles: 133183531 cumulative IPC: 0.1877 (Simulation time: 00 hr 20 min 27 sec)
Simulation complete CPU 0 instructions: 25000001 cycles: 133183531 cumulative IPC: 0.1877 (Simulation time: 00 hr 20 min 27 sec)

ChampSim completed all CPUs

=== Simulation ===
CPU 0 runs ./traces/lbm_94B.trace.xz
Region of Interest Statistics

CPU 0 cumulative IPC: 0.1877 instructions: 25000001 cycles: 133183531
CPU 0 Branch Prediction Accuracy: 98.94% MPKI: 0.1259 Average ROB Occupancy at Mispredict: 267
Branch type MPKI
BRANCH_DIRECT_JUMP: 0
BRANCH_INDIRECT: 0
BRANCH_CONDITIONAL: 0.126
BRANCH_DIRECT_CALL: 0
BRANCH_INDIRECT_CALL: 0
BRANCH_RETURN: 0

LLC TOTAL        ACCESS:    1434717 HIT:      63089 MISS:    1371628
LLC LOAD         ACCESS:      96538 HIT:       2000 MISS:      94538
LLC RFO          ACCESS:     614617 HIT:      28952 MISS:     585665
LLC PREFETCH     ACCESS:     106398 HIT:       1486 MISS:     104912
LLC WRITE        ACCESS:     616303 HIT:      30605 MISS:     585698
LLC TRANSLATION  ACCESS:        861 HIT:         46 MISS:        815
LLC PREFETCH REQUESTED:          0 ISSUED:          0 USEFUL:          0 USELESS:          0
LLC AVERAGE MISS LATENCY: 1342 cycles
cpu0_DTLB TOTAL        ACCESS:    4115043 HIT:    4094859 MISS:      20184
cpu0_DTLB LOAD         ACCESS:    4115043 HIT:    4094859 MISS:      20184
cpu0_DTLB RFO          ACCESS:          0 HIT:          0 MISS:          0
cpu0_DTLB PREFETCH     ACCESS:          0 HIT:          0 MISS:          0
cpu0_DTLB WRITE        ACCESS:          0 HIT:          0 MISS:          0
cpu0_DTLB TRANSLATION  ACCESS:          0 HIT:          0 MISS:          0
cpu0_DTLB PREFETCH REQUESTED:          0 ISSUED:          0 USEFUL:          0 USELESS:          0
cpu0_DTLB AVERAGE MISS LATENCY: 260.3 cycles
cpu0_ITLB TOTAL        ACCESS:          0 HIT:          0 MISS:          0
cpu0_ITLB LOAD         ACCESS:          0 HIT:          0 MISS:          0
cpu0_ITLB RFO          ACCESS:          0 HIT:          0 MISS:          0
cpu0_ITLB PREFETCH     ACCESS:          0 HIT:          0 MISS:          0
cpu0_ITLB WRITE        ACCESS:          0 HIT:          0 MISS:          0
cpu0_ITLB TRANSLATION  ACCESS:          0 HIT:          0 MISS:          0
cpu0_ITLB PREFETCH REQUESTED:          0 ISSUED:          0 USEFUL:          0 USELESS:          0
cpu0_ITLB AVERAGE MISS LATENCY: -nan cycles
cpu0_L1D TOTAL        ACCESS:    7230672 HIT:    3986691 MISS:    3243981
cpu0_L1D LOAD         ACCESS:    2171387 HIT:    1409534 MISS:     761853
cpu0_L1D RFO          ACCESS:          0 HIT:          0 MISS:          0
cpu0_L1D PREFETCH     ACCESS:    2436667 HIT:    1087899 MISS:    1348768
cpu0_L1D WRITE        ACCESS:    2610377 HIT:    1488235 MISS:    1122142
cpu0_L1D TRANSLATION  ACCESS:      12241 HIT:       1023 MISS:      11218
cpu0_L1D PREFETCH REQUESTED:   10448511 ISSUED:    2436672 USEFUL:      73333 USELESS:       1868
cpu0_L1D AVERAGE MISS LATENCY: 485.3 cycles
cpu0_L1I TOTAL        ACCESS:          0 HIT:          0 MISS:          0
cpu0_L1I LOAD         ACCESS:          0 HIT:          0 MISS:          0
cpu0_L1I RFO          ACCESS:          0 HIT:          0 MISS:          0
cpu0_L1I PREFETCH     ACCESS:          0 HIT:          0 MISS:          0
cpu0_L1I WRITE        ACCESS:          0 HIT:          0 MISS:          0
cpu0_L1I TRANSLATION  ACCESS:          0 HIT:          0 MISS:          0
cpu0_L1I PREFETCH REQUESTED:          0 ISSUED:          0 USEFUL:          0 USELESS:          0
cpu0_L1I AVERAGE MISS LATENCY: -nan cycles
cpu0_L2C TOTAL        ACCESS:    2483053 HIT:    1663354 MISS:     819699
cpu0_L2C LOAD         ACCESS:     122319 HIT:      25583 MISS:      96736
cpu0_L2C RFO          ACCESS:    1101939 HIT:     487321 MISS:     614618
cpu0_L2C PREFETCH     ACCESS:     145648 HIT:      38164 MISS:     107484
cpu0_L2C WRITE        ACCESS:    1101929 HIT:    1101929 MISS:          0
cpu0_L2C TRANSLATION  ACCESS:      11218 HIT:      10357 MISS:        861
cpu0_L2C PREFETCH REQUESTED:      70447 ISSUED:      70447 USEFUL:      25974 USELESS:         28
cpu0_L2C AVERAGE MISS LATENCY: 2254 cycles
cpu0_STLB TOTAL        ACCESS:      12229 HIT:          0 MISS:      12229
cpu0_STLB LOAD         ACCESS:      12229 HIT:          0 MISS:      12229
cpu0_STLB RFO          ACCESS:          0 HIT:          0 MISS:          0
cpu0_STLB PREFETCH     ACCESS:          0 HIT:          0 MISS:          0
cpu0_STLB WRITE        ACCESS:          0 HIT:          0 MISS:          0
cpu0_STLB TRANSLATION  ACCESS:          0 HIT:          0 MISS:          0
cpu0_STLB PREFETCH REQUESTED:          0 ISSUED:          0 USEFUL:          0 USELESS:          0
cpu0_STLB AVERAGE MISS LATENCY: 546.4 cycles

DRAM Statistics

Channel 0 RQ ROW_BUFFER_HIT:      57752
  ROW_BUFFER_MISS:     725004
 AVG DBUS CONGESTED CYCLE: 3.986
WQ ROW_BUFFER_HIT: Channel 0 
  ROW_BUFFER_MISS:      51156
  FULL:     536809
