WARNING: physical memory size is smaller than virtual memory size.

*** ChampSim Multicore Out-of-Order Simulator ***
Warmup Instructions: 25000000
Simulation Instructions: 25000000
Number of CPUs: 1
Page size: 4096

Off-chip DRAM Size: 4 GiB Channels: 1 Width: 64-bit Data Race: 800 MT/s
Heartbeat CPU 0 instructions: 10000001 cycles: 2500074 heartbeat IPC: 4 cumulative IPC: 4 (Simulation time: 00 hr 00 min 33 sec)
Heartbeat CPU 0 instructions: 20000001 cycles: 5000074 heartbeat IPC: 4 cumulative IPC: 4 (Simulation time: 00 hr 01 min 08 sec)
Warmup finished CPU 0 instructions: 25000001 cycles: 6250075 cumulative IPC: 4 (Simulation time: 00 hr 01 min 25 sec)
Warmup complete CPU 0 instructions: 25000001 cycles: 6250075 cumulative IPC: 4 (Simulation time: 00 hr 01 min 25 sec)
Heartbeat CPU 0 instructions: 30000002 cycles: 33470763 heartbeat IPC: 0.3512 cumulative IPC: 0.1837 (Simulation time: 00 hr 05 min 34 sec)
Heartbeat CPU 0 instructions: 40000000 cycles: 68922545 heartbeat IPC: 0.2821 cumulative IPC: 0.2393 (Simulation time: 00 hr 11 min 08 sec)
Heartbeat CPU 0 instructions: 50000003 cycles: 79136323 heartbeat IPC: 0.9791 cumulative IPC: 0.343 (Simulation time: 00 hr 13 min 01 sec)
Simulation finished CPU 0 instructions: 25000002 cycles: 72886249 cumulative IPC: 0.343 (Simulation time: 00 hr 13 min 01 sec)
Simulation complete CPU 0 instructions: 25000002 cycles: 72886249 cumulative IPC: 0.343 (Simulation time: 00 hr 13 min 01 sec)

ChampSim completed all CPUs

=== Simulation ===
CPU 0 runs ./traces/libquantum_964B.trace.xz
Region of Interest Statistics

CPU 0 cumulative IPC: 0.343 instructions: 25000002 cycles: 72886249
CPU 0 Branch Prediction Accuracy: 99.98% MPKI: 0.05316 Average ROB Occupancy at Mispredict: 83.58
Branch type MPKI
BRANCH_DIRECT_JUMP: 4e-05
BRANCH_INDIRECT: 0
BRANCH_CONDITIONAL: 0.0527
BRANCH_DIRECT_CALL: 0.0002
BRANCH_INDIRECT_CALL: 0
BRANCH_RETURN: 0.0002

LLC TOTAL        ACCESS:    1770429 HIT:     108517 MISS:    1661912
LLC LOAD         ACCESS:     199719 HIT:      17186 MISS:     182533
LLC RFO          ACCESS:          8 HIT:          0 MISS:          8
LLC PREFETCH     ACCESS:    1044466 HIT:      60309 MISS:     984157
LLC WRITE        ACCESS:     526199 HIT:      31019 MISS:     495180
LLC TRANSLATION  ACCESS:         37 HIT:          3 MISS:         34
LLC PREFETCH REQUESTED:          0 ISSUED:          0 USEFUL:          0 USELESS:          0
LLC AVERAGE MISS LATENCY: 542.2 cycles
cpu0_DTLB TOTAL        ACCESS:    4212113 HIT:    4146254 MISS:      65859
cpu0_DTLB LOAD         ACCESS:    4212113 HIT:    4146254 MISS:      65859
cpu0_DTLB RFO          ACCESS:          0 HIT:          0 MISS:          0
cpu0_DTLB PREFETCH     ACCESS:          0 HIT:          0 MISS:          0
cpu0_DTLB WRITE        ACCESS:          0 HIT:          0 MISS:          0
cpu0_DTLB TRANSLATION  ACCESS:          0 HIT:          0 MISS:          0
cpu0_DTLB PREFETCH REQUESTED:          0 ISSUED:          0 USEFUL:          0 USELESS:          0
cpu0_DTLB AVERAGE MISS LATENCY: 3.414 cycles
cpu0_ITLB TOTAL        ACCESS:          8 HIT:          7 MISS:          1
cpu0_ITLB LOAD         ACCESS:          8 HIT:          7 MISS:          1
cpu0_ITLB RFO          ACCESS:          0 HIT:          0 MISS:          0
cpu0_ITLB PREFETCH     ACCESS:          0 HIT:          0 MISS:          0
cpu0_ITLB WRITE        ACCESS:          0 HIT:          0 MISS:          0
cpu0_ITLB TRANSLATION  ACCESS:          0 HIT:          0 MISS:          0
cpu0_ITLB PREFETCH REQUESTED:          0 ISSUED:          0 USEFUL:          0 USELESS:          0
cpu0_ITLB AVERAGE MISS LATENCY: 597 cycles
cpu0_L1D TOTAL        ACCESS:    8189048 HIT:    2330337 MISS:    5858711
cpu0_L1D LOAD         ACCESS:    3437804 HIT:     114991 MISS:    3322813
cpu0_L1D RFO          ACCESS:          0 HIT:          0 MISS:          0
cpu0_L1D PREFETCH     ACCESS:    2638233 HIT:     102400 MISS:    2535833
cpu0_L1D WRITE        ACCESS:    2098511 HIT:    2098483 MISS:         28
cpu0_L1D TRANSLATION  ACCESS:      14500 HIT:      14463 MISS:         37
cpu0_L1D PREFETCH REQUESTED:   19027238 ISSUED:    2638233 USEFUL:     501566 USELESS:         31
cpu0_L1D AVERAGE MISS LATENCY: 128.9 cycles
cpu0_L1I TOTAL        ACCESS:          8 HIT:          5 MISS:          3
cpu0_L1I LOAD         ACCESS:          8 HIT:          5 MISS:          3
cpu0_L1I RFO          ACCESS:          0 HIT:          0 MISS:          0
cpu0_L1I PREFETCH     ACCESS:          0 HIT:          0 MISS:          0
cpu0_L1I WRITE        ACCESS:          0 HIT:          0 MISS:          0
cpu0_L1I TRANSLATION  ACCESS:          0 HIT:          0 MISS:          0
cpu0_L1I PREFETCH REQUESTED:          0 ISSUED:          0 USEFUL:          0 USELESS:          0
cpu0_L1I AVERAGE MISS LATENCY: 349 cycles
cpu0_L2C TOTAL        ACCESS:    3725618 HIT:     537079 MISS:    3188539
cpu0_L2C LOAD         ACCESS:     425836 HIT:       2456 MISS:     423380
cpu0_L2C RFO          ACCESS:          8 HIT:          0 MISS:          8
cpu0_L2C PREFETCH     ACCESS:    2774066 HIT:       8952 MISS:    2765114
cpu0_L2C WRITE        ACCESS:     525671 HIT:     525671 MISS:          0
cpu0_L2C TRANSLATION  ACCESS:         37 HIT:          0 MISS:         37
cpu0_L2C PREFETCH REQUESTED:    2273540 ISSUED:    2272470 USEFUL:     259744 USELESS:     387331
cpu0_L2C AVERAGE MISS LATENCY: 264.9 cycles
cpu0_STLB TOTAL        ACCESS:      14500 HIT:          0 MISS:      14500
cpu0_STLB LOAD         ACCESS:      14500 HIT:          0 MISS:      14500
cpu0_STLB RFO          ACCESS:          0 HIT:          0 MISS:          0
cpu0_STLB PREFETCH     ACCESS:          0 HIT:          0 MISS:          0
cpu0_STLB WRITE        ACCESS:          0 HIT:          0 MISS:          0
cpu0_STLB TRANSLATION  ACCESS:          0 HIT:          0 MISS:          0
cpu0_STLB PREFETCH REQUESTED:          0 ISSUED:          0 USEFUL:          0 USELESS:          0
cpu0_STLB AVERAGE MISS LATENCY: 16.33 cycles

DRAM Statistics

Channel 0 RQ ROW_BUFFER_HIT:     515651
  ROW_BUFFER_MISS:     352668
 AVG DBUS CONGESTED CYCLE: 3.956
WQ ROW_BUFFER_HIT: Channel 0 
  ROW_BUFFER_MISS:     176384
  FULL:     319844
