WARNING: physical memory size is smaller than virtual memory size.

*** ChampSim Multicore Out-of-Order Simulator ***
Warmup Instructions: 25000000
Simulation Instructions: 25000000
Number of CPUs: 1
Page size: 4096

Off-chip DRAM Size: 4 GiB Channels: 1 Width: 64-bit Data Race: 800 MT/s
Heartbeat CPU 0 instructions: 10000001 cycles: 2500071 heartbeat IPC: 4 cumulative IPC: 4 (Simulation time: 00 hr 00 min 35 sec)
Heartbeat CPU 0 instructions: 20000001 cycles: 5127947 heartbeat IPC: 3.805 cumulative IPC: 3.9 (Simulation time: 00 hr 01 min 09 sec)
Warmup finished CPU 0 instructions: 25000001 cycles: 6458980 cumulative IPC: 3.871 (Simulation time: 00 hr 01 min 26 sec)
Warmup complete CPU 0 instructions: 25000001 cycles: 6458980 cumulative IPC: 3.871 (Simulation time: 00 hr 01 min 26 sec)
Heartbeat CPU 0 instructions: 30000000 cycles: 16861720 heartbeat IPC: 0.8522 cumulative IPC: 0.4806 (Simulation time: 00 hr 02 min 57 sec)
Heartbeat CPU 0 instructions: 40000000 cycles: 27026238 heartbeat IPC: 0.9838 cumulative IPC: 0.7293 (Simulation time: 00 hr 04 min 41 sec)
Heartbeat CPU 0 instructions: 50000003 cycles: 43003171 heartbeat IPC: 0.6259 cumulative IPC: 0.6841 (Simulation time: 00 hr 07 min 09 sec)
Simulation finished CPU 0 instructions: 25000002 cycles: 36544192 cumulative IPC: 0.6841 (Simulation time: 00 hr 07 min 09 sec)
Simulation complete CPU 0 instructions: 25000002 cycles: 36544192 cumulative IPC: 0.6841 (Simulation time: 00 hr 07 min 09 sec)

ChampSim completed all CPUs

=== Simulation ===
CPU 0 runs ./traces/libquantum_1210B.trace.xz
Region of Interest Statistics

CPU 0 cumulative IPC: 0.6841 instructions: 25000002 cycles: 36544192
CPU 0 Branch Prediction Accuracy: 96.18% MPKI: 8.916 Average ROB Occupancy at Mispredict: 2.094
Branch type MPKI
BRANCH_DIRECT_JUMP: 8e-05
BRANCH_INDIRECT: 0
BRANCH_CONDITIONAL: 8.92
BRANCH_DIRECT_CALL: 0.0002
BRANCH_INDIRECT_CALL: 0
BRANCH_RETURN: 0.0002

LLC TOTAL        ACCESS:     838502 HIT:      30757 MISS:     807745
LLC LOAD         ACCESS:        728 HIT:          9 MISS:        719
LLC RFO          ACCESS:          8 HIT:          0 MISS:          8
LLC PREFETCH     ACCESS:     740112 HIT:      30745 MISS:     709367
LLC WRITE        ACCESS:      97624 HIT:          1 MISS:      97623
LLC TRANSLATION  ACCESS:         30 HIT:          2 MISS:         28
LLC PREFETCH REQUESTED:          0 ISSUED:          0 USEFUL:          0 USELESS:          0
LLC AVERAGE MISS LATENCY: 499.8 cycles
cpu0_DTLB TOTAL        ACCESS:    3114002 HIT:    3067852 MISS:      46150
cpu0_DTLB LOAD         ACCESS:    3114002 HIT:    3067852 MISS:      46150
cpu0_DTLB RFO          ACCESS:          0 HIT:          0 MISS:          0
cpu0_DTLB PREFETCH     ACCESS:          0 HIT:          0 MISS:          0
cpu0_DTLB WRITE        ACCESS:          0 HIT:          0 MISS:          0
cpu0_DTLB TRANSLATION  ACCESS:          0 HIT:          0 MISS:          0
cpu0_DTLB PREFETCH REQUESTED:          0 ISSUED:          0 USEFUL:          0 USELESS:          0
cpu0_DTLB AVERAGE MISS LATENCY: 2.269 cycles
cpu0_ITLB TOTAL        ACCESS:          7 HIT:          7 MISS:          0
cpu0_ITLB LOAD         ACCESS:          7 HIT:          7 MISS:          0
cpu0_ITLB RFO          ACCESS:          0 HIT:          0 MISS:          0
cpu0_ITLB PREFETCH     ACCESS:          0 HIT:          0 MISS:          0
cpu0_ITLB WRITE        ACCESS:          0 HIT:          0 MISS:          0
cpu0_ITLB TRANSLATION  ACCESS:          0 HIT:          0 MISS:          0
cpu0_ITLB PREFETCH REQUESTED:          0 ISSUED:          0 USEFUL:          0 USELESS:          0
cpu0_ITLB AVERAGE MISS LATENCY: -nan cycles
cpu0_L1D TOTAL        ACCESS:    6038744 HIT:     692178 MISS:    5346566
cpu0_L1D LOAD         ACCESS:    2913422 HIT:     372022 MISS:    2541400
cpu0_L1D RFO          ACCESS:          0 HIT:          0 MISS:          0
cpu0_L1D PREFETCH     ACCESS:    2913280 HIT:     108171 MISS:    2805109
cpu0_L1D WRITE        ACCESS:     200648 HIT:     200621 MISS:         27
cpu0_L1D TRANSLATION  ACCESS:      11394 HIT:      11364 MISS:         30
cpu0_L1D PREFETCH REQUESTED:    2913422 ISSUED:    2913279 USEFUL:     724241 USELESS:         35
cpu0_L1D AVERAGE MISS LATENCY: 55.77 cycles
cpu0_L1I TOTAL        ACCESS:          7 HIT:          3 MISS:          4
cpu0_L1I LOAD         ACCESS:          7 HIT:          3 MISS:          4
cpu0_L1I RFO          ACCESS:          0 HIT:          0 MISS:          0
cpu0_L1I PREFETCH     ACCESS:          0 HIT:          0 MISS:          0
cpu0_L1I WRITE        ACCESS:          0 HIT:          0 MISS:          0
cpu0_L1I TRANSLATION  ACCESS:          0 HIT:          0 MISS:          0
cpu0_L1I PREFETCH REQUESTED:          0 ISSUED:          0 USEFUL:          0 USELESS:          0
cpu0_L1I AVERAGE MISS LATENCY: 387.5 cycles
cpu0_L2C TOTAL        ACCESS:    2927234 HIT:     137000 MISS:    2790234
cpu0_L2C LOAD         ACCESS:       4495 HIT:          8 MISS:       4487
cpu0_L2C RFO          ACCESS:          8 HIT:          0 MISS:          8
cpu0_L2C PREFETCH     ACCESS:    2825114 HIT:      39405 MISS:    2785709
cpu0_L2C WRITE        ACCESS:      97587 HIT:      97587 MISS:          0
cpu0_L2C TRANSLATION  ACCESS:         30 HIT:          0 MISS:         30
cpu0_L2C PREFETCH REQUESTED:    2100839 ISSUED:    2100839 USEFUL:     102196 USELESS:     610094
cpu0_L2C AVERAGE MISS LATENCY: 149.2 cycles
cpu0_STLB TOTAL        ACCESS:      11394 HIT:          0 MISS:      11394
cpu0_STLB LOAD         ACCESS:      11394 HIT:          0 MISS:      11394
cpu0_STLB RFO          ACCESS:          0 HIT:          0 MISS:          0
cpu0_STLB PREFETCH     ACCESS:          0 HIT:          0 MISS:          0
cpu0_STLB WRITE        ACCESS:          0 HIT:          0 MISS:          0
cpu0_STLB TRANSLATION  ACCESS:          0 HIT:          0 MISS:          0
cpu0_STLB PREFETCH REQUESTED:          0 ISSUED:          0 USEFUL:          0 USELESS:          0
cpu0_STLB AVERAGE MISS LATENCY: 7.148 cycles

DRAM Statistics

Channel 0 RQ ROW_BUFFER_HIT:     607620
  ROW_BUFFER_MISS:      90538
 AVG DBUS CONGESTED CYCLE: 3.939
WQ ROW_BUFFER_HIT: Channel 0 
  ROW_BUFFER_MISS:      34206
  FULL:      63757
