WARNING: physical memory size is smaller than virtual memory size.

*** ChampSim Multicore Out-of-Order Simulator ***
Warmup Instructions: 25000000
Simulation Instructions: 25000000
Number of CPUs: 1
Page size: 4096

Off-chip DRAM Size: 4 GiB Channels: 1 Width: 64-bit Data Race: 800 MT/s
Heartbeat CPU 0 instructions: 10000003 cycles: 2564843 heartbeat IPC: 3.899 cumulative IPC: 3.899 (Simulation time: 00 hr 00 min 52 sec)
Heartbeat CPU 0 instructions: 20000002 cycles: 5099600 heartbeat IPC: 3.945 cumulative IPC: 3.922 (Simulation time: 00 hr 01 min 43 sec)
Warmup finished CPU 0 instructions: 25000002 cycles: 6374393 cumulative IPC: 3.922 (Simulation time: 00 hr 02 min 10 sec)
Warmup complete CPU 0 instructions: 25000002 cycles: 6374393 cumulative IPC: 3.922 (Simulation time: 00 hr 02 min 10 sec)
Heartbeat CPU 0 instructions: 30000000 cycles: 64986120 heartbeat IPC: 0.167 cumulative IPC: 0.08531 (Simulation time: 00 hr 08 min 17 sec)
Heartbeat CPU 0 instructions: 40000001 cycles: 191564065 heartbeat IPC: 0.079 cumulative IPC: 0.081 (Simulation time: 00 hr 18 min 48 sec)
Heartbeat CPU 0 instructions: 50000001 cycles: 315227610 heartbeat IPC: 0.08086 cumulative IPC: 0.08094 (Simulation time: 00 hr 23 min 24 sec)
Simulation finished CPU 0 instructions: 25000000 cycles: 308853219 cumulative IPC: 0.08094 (Simulation time: 00 hr 23 min 24 sec)
Simulation complete CPU 0 instructions: 25000000 cycles: 308853219 cumulative IPC: 0.08094 (Simulation time: 00 hr 23 min 24 sec)

ChampSim completed all CPUs

=== Simulation ===
CPU 0 runs ./traces/mcf_46B.trace.xz
Region of Interest Statistics

CPU 0 cumulative IPC: 0.08094 instructions: 25000000 cycles: 308853219
CPU 0 Branch Prediction Accuracy: 81.68% MPKI: 49.4 Average ROB Occupancy at Mispredict: 16.51
Branch type MPKI
BRANCH_DIRECT_JUMP: 0.752
BRANCH_INDIRECT: 0
BRANCH_CONDITIONAL: 48.6
BRANCH_DIRECT_CALL: 0
BRANCH_INDIRECT_CALL: 0
BRANCH_RETURN: 0

LLC TOTAL        ACCESS:    4317636 HIT:    1277850 MISS:    3039786
LLC LOAD         ACCESS:    1885055 HIT:     665434 MISS:    1219621
LLC RFO          ACCESS:      49761 HIT:      16884 MISS:      32877
LLC PREFETCH     ACCESS:    1610004 HIT:     357967 MISS:    1252037
LLC WRITE        ACCESS:     471652 HIT:     207357 MISS:     264295
LLC TRANSLATION  ACCESS:     301164 HIT:      30208 MISS:     270956
LLC PREFETCH REQUESTED:          0 ISSUED:          0 USEFUL:          0 USELESS:          0
LLC AVERAGE MISS LATENCY: 615.6 cycles
cpu0_DTLB TOTAL        ACCESS:    7370577 HIT:    4653541 MISS:    2717036
cpu0_DTLB LOAD         ACCESS:    7370577 HIT:    4653541 MISS:    2717036
cpu0_DTLB RFO          ACCESS:          0 HIT:          0 MISS:          0
cpu0_DTLB PREFETCH     ACCESS:          0 HIT:          0 MISS:          0
cpu0_DTLB WRITE        ACCESS:          0 HIT:          0 MISS:          0
cpu0_DTLB TRANSLATION  ACCESS:          0 HIT:          0 MISS:          0
cpu0_DTLB PREFETCH REQUESTED:          0 ISSUED:          0 USEFUL:          0 USELESS:          0
cpu0_DTLB AVERAGE MISS LATENCY: 61.5 cycles
cpu0_ITLB TOTAL        ACCESS:         17 HIT:         17 MISS:          0
cpu0_ITLB LOAD         ACCESS:         17 HIT:         17 MISS:          0
cpu0_ITLB RFO          ACCESS:          0 HIT:          0 MISS:          0
cpu0_ITLB PREFETCH     ACCESS:          0 HIT:          0 MISS:          0
cpu0_ITLB WRITE        ACCESS:          0 HIT:          0 MISS:          0
cpu0_ITLB TRANSLATION  ACCESS:          0 HIT:          0 MISS:          0
cpu0_ITLB PREFETCH REQUESTED:          0 ISSUED:          0 USEFUL:          0 USELESS:          0
cpu0_ITLB AVERAGE MISS LATENCY: -nan cycles
cpu0_L1D TOTAL        ACCESS:   14435022 HIT:    7261289 MISS:    7173733
cpu0_L1D LOAD         ACCESS:    6953550 HIT:    3502485 MISS:    3451065
cpu0_L1D RFO          ACCESS:          0 HIT:          0 MISS:          0
cpu0_L1D PREFETCH     ACCESS:    5745615 HIT:    2577403 MISS:    3168212
cpu0_L1D WRITE        ACCESS:    1316563 HIT:    1151027 MISS:     165536
cpu0_L1D TRANSLATION  ACCESS:     419294 HIT:      30374 MISS:     388920
cpu0_L1D PREFETCH REQUESTED:   24701707 ISSUED:    5745614 USEFUL:     260252 USELESS:    1624526
cpu0_L1D AVERAGE MISS LATENCY: 272 cycles
cpu0_L1I TOTAL        ACCESS:         17 HIT:         17 MISS:          0
cpu0_L1I LOAD         ACCESS:         17 HIT:         17 MISS:          0
cpu0_L1I RFO          ACCESS:          0 HIT:          0 MISS:          0
cpu0_L1I PREFETCH     ACCESS:          0 HIT:          0 MISS:          0
cpu0_L1I WRITE        ACCESS:          0 HIT:          0 MISS:          0
cpu0_L1I TRANSLATION  ACCESS:          0 HIT:          0 MISS:          0
cpu0_L1I PREFETCH REQUESTED:          0 ISSUED:          0 USEFUL:          0 USELESS:          0
cpu0_L1I AVERAGE MISS LATENCY: -nan cycles
cpu0_L2C TOTAL        ACCESS:    5770093 HIT:    1923887 MISS:    3846206
cpu0_L2C LOAD         ACCESS:    2718324 HIT:     833240 MISS:    1885084
cpu0_L2C RFO          ACCESS:     103617 HIT:      53856 MISS:      49761
cpu0_L2C PREFETCH     ACCESS:    1894042 HIT:     283923 MISS:    1610119
cpu0_L2C WRITE        ACCESS:     665473 HIT:     665395 MISS:         78
cpu0_L2C TRANSLATION  ACCESS:     388637 HIT:      87473 MISS:     301164
cpu0_L2C PREFETCH REQUESTED:       9176 ISSUED:       9176 USEFUL:       1106 USELESS:       2058
cpu0_L2C AVERAGE MISS LATENCY: 507.2 cycles
cpu0_STLB TOTAL        ACCESS:    2313237 HIT:    1992393 MISS:     320844
cpu0_STLB LOAD         ACCESS:    2313237 HIT:    1992393 MISS:     320844
cpu0_STLB RFO          ACCESS:          0 HIT:          0 MISS:          0
cpu0_STLB PREFETCH     ACCESS:          0 HIT:          0 MISS:          0
cpu0_STLB WRITE        ACCESS:          0 HIT:          0 MISS:          0
cpu0_STLB TRANSLATION  ACCESS:          0 HIT:          0 MISS:          0
cpu0_STLB PREFETCH REQUESTED:          0 ISSUED:          0 USEFUL:          0 USELESS:          0
cpu0_STLB AVERAGE MISS LATENCY: 466.3 cycles

DRAM Statistics

Channel 0 RQ ROW_BUFFER_HIT:      91543
  ROW_BUFFER_MISS:    2682369
 AVG DBUS CONGESTED CYCLE: 3.951
WQ ROW_BUFFER_HIT: Channel 0 
  ROW_BUFFER_MISS:       5915
  FULL:     302557
