WARNING: physical memory size is smaller than virtual memory size.

*** ChampSim Multicore Out-of-Order Simulator ***
Warmup Instructions: 25000000
Simulation Instructions: 25000000
Number of CPUs: 1
Page size: 4096

Off-chip DRAM Size: 4 GiB Channels: 1 Width: 64-bit Data Race: 800 MT/s
Heartbeat CPU 0 instructions: 10000002 cycles: 2500079 heartbeat IPC: 4 cumulative IPC: 4 (Simulation time: 00 hr 00 min 39 sec)
Heartbeat CPU 0 instructions: 20000002 cycles: 5000079 heartbeat IPC: 4 cumulative IPC: 4 (Simulation time: 00 hr 01 min 18 sec)
Warmup finished CPU 0 instructions: 25000002 cycles: 6250080 cumulative IPC: 4 (Simulation time: 00 hr 01 min 37 sec)
Warmup complete CPU 0 instructions: 25000002 cycles: 6250080 cumulative IPC: 4 (Simulation time: 00 hr 01 min 37 sec)
Heartbeat CPU 0 instructions: 30000000 cycles: 13909908 heartbeat IPC: 1.122 cumulative IPC: 0.6528 (Simulation time: 00 hr 02 min 53 sec)
Heartbeat CPU 0 instructions: 40000003 cycles: 29413917 heartbeat IPC: 0.645 cumulative IPC: 0.6476 (Simulation time: 00 hr 05 min 22 sec)
Heartbeat CPU 0 instructions: 50000002 cycles: 44923641 heartbeat IPC: 0.6448 cumulative IPC: 0.6464 (Simulation time: 00 hr 07 min 57 sec)
Simulation finished CPU 0 instructions: 25000000 cycles: 38673562 cumulative IPC: 0.6464 (Simulation time: 00 hr 07 min 57 sec)
Simulation complete CPU 0 instructions: 25000000 cycles: 38673562 cumulative IPC: 0.6464 (Simulation time: 00 hr 07 min 57 sec)

ChampSim completed all CPUs

=== Simulation ===
CPU 0 runs ./traces/milc_744B.trace.xz
Region of Interest Statistics

CPU 0 cumulative IPC: 0.6464 instructions: 25000000 cycles: 38673562
CPU 0 Branch Prediction Accuracy: 85.71% MPKI: 2.288 Average ROB Occupancy at Mispredict: 352
Branch type MPKI
BRANCH_DIRECT_JUMP: 0
BRANCH_INDIRECT: 0
BRANCH_CONDITIONAL: 2.29
BRANCH_DIRECT_CALL: 0
BRANCH_INDIRECT_CALL: 0
BRANCH_RETURN: 0

LLC TOTAL        ACCESS:     569538 HIT:       3332 MISS:     566206
LLC LOAD         ACCESS:     269030 HIT:          0 MISS:     269030
LLC RFO          ACCESS:          0 HIT:          0 MISS:          0
LLC PREFETCH     ACCESS:     213890 HIT:          3 MISS:     213887
LLC WRITE        ACCESS:      85108 HIT:       3315 MISS:      81793
LLC TRANSLATION  ACCESS:       1510 HIT:         14 MISS:       1496
LLC PREFETCH REQUESTED:          0 ISSUED:          0 USEFUL:          0 USELESS:          0
LLC AVERAGE MISS LATENCY: 385.6 cycles
cpu0_DTLB TOTAL        ACCESS:    4351963 HIT:    3894243 MISS:     457720
cpu0_DTLB LOAD         ACCESS:    4351963 HIT:    3894243 MISS:     457720
cpu0_DTLB RFO          ACCESS:          0 HIT:          0 MISS:          0
cpu0_DTLB PREFETCH     ACCESS:          0 HIT:          0 MISS:          0
cpu0_DTLB WRITE        ACCESS:          0 HIT:          0 MISS:          0
cpu0_DTLB TRANSLATION  ACCESS:          0 HIT:          0 MISS:          0
cpu0_DTLB PREFETCH REQUESTED:          0 ISSUED:          0 USEFUL:          0 USELESS:          0
cpu0_DTLB AVERAGE MISS LATENCY: 13.11 cycles
cpu0_ITLB TOTAL        ACCESS:          0 HIT:          0 MISS:          0
cpu0_ITLB LOAD         ACCESS:          0 HIT:          0 MISS:          0
cpu0_ITLB RFO          ACCESS:          0 HIT:          0 MISS:          0
cpu0_ITLB PREFETCH     ACCESS:          0 HIT:          0 MISS:          0
cpu0_ITLB WRITE        ACCESS:          0 HIT:          0 MISS:          0
cpu0_ITLB TRANSLATION  ACCESS:          0 HIT:          0 MISS:          0
cpu0_ITLB PREFETCH REQUESTED:          0 ISSUED:          0 USEFUL:          0 USELESS:          0
cpu0_ITLB AVERAGE MISS LATENCY: -nan cycles
cpu0_L1D TOTAL        ACCESS:    8280460 HIT:    4060598 MISS:    4219862
cpu0_L1D LOAD         ACCESS:    4029150 HIT:    1369972 MISS:    2659178
cpu0_L1D RFO          ACCESS:          0 HIT:          0 MISS:          0
cpu0_L1D PREFETCH     ACCESS:    2589481 HIT:    1031205 MISS:    1558276
cpu0_L1D WRITE        ACCESS:    1629015 HIT:    1629015 MISS:          0
cpu0_L1D TRANSLATION  ACCESS:      32814 HIT:      30406 MISS:       2408
cpu0_L1D PREFETCH REQUESTED:    4029150 ISSUED:    2589472 USEFUL:      31433 USELESS:      90264
cpu0_L1D AVERAGE MISS LATENCY: 34.05 cycles
cpu0_L1I TOTAL        ACCESS:          0 HIT:          0 MISS:          0
cpu0_L1I LOAD         ACCESS:          0 HIT:          0 MISS:          0
cpu0_L1I RFO          ACCESS:          0 HIT:          0 MISS:          0
cpu0_L1I PREFETCH     ACCESS:          0 HIT:          0 MISS:          0
cpu0_L1I WRITE        ACCESS:          0 HIT:          0 MISS:          0
cpu0_L1I TRANSLATION  ACCESS:          0 HIT:          0 MISS:          0
cpu0_L1I PREFETCH REQUESTED:          0 ISSUED:          0 USEFUL:          0 USELESS:          0
cpu0_L1I AVERAGE MISS LATENCY: -nan cycles
cpu0_L2C TOTAL        ACCESS:     681679 HIT:     193575 MISS:     488104
cpu0_L2C LOAD         ACCESS:     318962 HIT:      49925 MISS:     269037
cpu0_L2C RFO          ACCESS:          0 HIT:          0 MISS:          0
cpu0_L2C PREFETCH     ACCESS:     274608 HIT:      60685 MISS:     213923
cpu0_L2C WRITE        ACCESS:      85738 HIT:      82104 MISS:       3634
cpu0_L2C TRANSLATION  ACCESS:       2371 HIT:        861 MISS:       1510
cpu0_L2C PREFETCH REQUESTED:     152990 ISSUED:     152990 USEFUL:      50770 USELESS:      42602
cpu0_L2C AVERAGE MISS LATENCY: 468.1 cycles
cpu0_STLB TOTAL        ACCESS:      33518 HIT:        770 MISS:      32748
cpu0_STLB LOAD         ACCESS:      33518 HIT:        770 MISS:      32748
cpu0_STLB RFO          ACCESS:          0 HIT:          0 MISS:          0
cpu0_STLB PREFETCH     ACCESS:          0 HIT:          0 MISS:          0
cpu0_STLB WRITE        ACCESS:          0 HIT:          0 MISS:          0
cpu0_STLB TRANSLATION  ACCESS:          0 HIT:          0 MISS:          0
cpu0_STLB PREFETCH REQUESTED:          0 ISSUED:          0 USEFUL:          0 USELESS:          0
cpu0_STLB AVERAGE MISS LATENCY: 221.8 cycles

DRAM Statistics

Channel 0 RQ ROW_BUFFER_HIT:     208224
  ROW_BUFFER_MISS:     276185
 AVG DBUS CONGESTED CYCLE: 3.882
WQ ROW_BUFFER_HIT: Channel 0 
  ROW_BUFFER_MISS:       1731
  FULL:      83227
