WARNING: physical memory size is smaller than virtual memory size.

*** ChampSim Multicore Out-of-Order Simulator ***
Warmup Instructions: 25000000
Simulation Instructions: 25000000
Number of CPUs: 1
Page size: 4096

Off-chip DRAM Size: 4 GiB Channels: 1 Width: 64-bit Data Race: 800 MT/s
Heartbeat CPU 0 instructions: 10000001 cycles: 2500095 heartbeat IPC: 4 cumulative IPC: 4 (Simulation time: 00 hr 00 min 42 sec)
Heartbeat CPU 0 instructions: 20000001 cycles: 5000095 heartbeat IPC: 4 cumulative IPC: 4 (Simulation time: 00 hr 01 min 24 sec)
Warmup finished CPU 0 instructions: 25000001 cycles: 6250096 cumulative IPC: 4 (Simulation time: 00 hr 01 min 45 sec)
Warmup complete CPU 0 instructions: 25000001 cycles: 6250096 cumulative IPC: 4 (Simulation time: 00 hr 01 min 45 sec)
Heartbeat CPU 0 instructions: 30000002 cycles: 16137959 heartbeat IPC: 0.8978 cumulative IPC: 0.5057 (Simulation time: 00 hr 03 min 23 sec)
Heartbeat CPU 0 instructions: 40000002 cycles: 35932999 heartbeat IPC: 0.5052 cumulative IPC: 0.5053 (Simulation time: 00 hr 06 min 38 sec)
Heartbeat CPU 0 instructions: 50000002 cycles: 70373774 heartbeat IPC: 0.2904 cumulative IPC: 0.3899 (Simulation time: 00 hr 12 min 21 sec)
Simulation finished CPU 0 instructions: 25000001 cycles: 64123679 cumulative IPC: 0.3899 (Simulation time: 00 hr 12 min 21 sec)
Simulation complete CPU 0 instructions: 25000001 cycles: 64123679 cumulative IPC: 0.3899 (Simulation time: 00 hr 12 min 21 sec)

ChampSim completed all CPUs

=== Simulation ===
CPU 0 runs ./traces/milc_360B.trace.xz
Region of Interest Statistics

CPU 0 cumulative IPC: 0.3899 instructions: 25000001 cycles: 64123679
CPU 0 Branch Prediction Accuracy: 100% MPKI: 0.00052 Average ROB Occupancy at Mispredict: 102.2
Branch type MPKI
BRANCH_DIRECT_JUMP: 0
BRANCH_INDIRECT: 0
BRANCH_CONDITIONAL: 0.00036
BRANCH_DIRECT_CALL: 0.00012
BRANCH_INDIRECT_CALL: 0
BRANCH_RETURN: 4e-05

LLC TOTAL        ACCESS:     901923 HIT:       3881 MISS:     898042
LLC LOAD         ACCESS:     247750 HIT:       1815 MISS:     245935
LLC RFO          ACCESS:       2962 HIT:          0 MISS:       2962
LLC PREFETCH     ACCESS:     405922 HIT:        804 MISS:     405118
LLC WRITE        ACCESS:     245129 HIT:       1201 MISS:     243928
LLC TRANSLATION  ACCESS:        160 HIT:         61 MISS:         99
LLC PREFETCH REQUESTED:          0 ISSUED:          0 USEFUL:          0 USELESS:          0
LLC AVERAGE MISS LATENCY: 824.4 cycles
cpu0_DTLB TOTAL        ACCESS:    5970174 HIT:    5746025 MISS:     224149
cpu0_DTLB LOAD         ACCESS:    5970174 HIT:    5746025 MISS:     224149
cpu0_DTLB RFO          ACCESS:          0 HIT:          0 MISS:          0
cpu0_DTLB PREFETCH     ACCESS:          0 HIT:          0 MISS:          0
cpu0_DTLB WRITE        ACCESS:          0 HIT:          0 MISS:          0
cpu0_DTLB TRANSLATION  ACCESS:          0 HIT:          0 MISS:          0
cpu0_DTLB PREFETCH REQUESTED:          0 ISSUED:          0 USEFUL:          0 USELESS:          0
cpu0_DTLB AVERAGE MISS LATENCY: 18.22 cycles
cpu0_ITLB TOTAL        ACCESS:         17 HIT:         15 MISS:          2
cpu0_ITLB LOAD         ACCESS:         17 HIT:         15 MISS:          2
cpu0_ITLB RFO          ACCESS:          0 HIT:          0 MISS:          0
cpu0_ITLB PREFETCH     ACCESS:          0 HIT:          0 MISS:          0
cpu0_ITLB WRITE        ACCESS:          0 HIT:          0 MISS:          0
cpu0_ITLB TRANSLATION  ACCESS:          0 HIT:          0 MISS:          0
cpu0_ITLB PREFETCH REQUESTED:          0 ISSUED:          0 USEFUL:          0 USELESS:          0
cpu0_ITLB AVERAGE MISS LATENCY: 1098 cycles
cpu0_L1D TOTAL        ACCESS:   10303799 HIT:    7122577 MISS:    3181222
cpu0_L1D LOAD         ACCESS:    2697193 HIT:    1067961 MISS:    1629232
cpu0_L1D RFO          ACCESS:          0 HIT:          0 MISS:          0
cpu0_L1D PREFETCH     ACCESS:    2188769 HIT:     708867 MISS:    1479902
cpu0_L1D WRITE        ACCESS:    5381304 HIT:    5310835 MISS:      70469
cpu0_L1D TRANSLATION  ACCESS:      36533 HIT:      34914 MISS:       1619
cpu0_L1D PREFETCH REQUESTED:    2703994 ISSUED:    2188777 USEFUL:     240649 USELESS:     126184
cpu0_L1D AVERAGE MISS LATENCY: 180.6 cycles
cpu0_L1I TOTAL        ACCESS:         17 HIT:          3 MISS:         14
cpu0_L1I LOAD         ACCESS:         17 HIT:          3 MISS:         14
cpu0_L1I RFO          ACCESS:          0 HIT:          0 MISS:          0
cpu0_L1I PREFETCH     ACCESS:          0 HIT:          0 MISS:          0
cpu0_L1I WRITE        ACCESS:          0 HIT:          0 MISS:          0
cpu0_L1I TRANSLATION  ACCESS:          0 HIT:          0 MISS:          0
cpu0_L1I PREFETCH REQUESTED:          0 ISSUED:          0 USEFUL:          0 USELESS:          0
cpu0_L1I AVERAGE MISS LATENCY: 421.6 cycles
cpu0_L2C TOTAL        ACCESS:    1054992 HIT:     284257 MISS:     770735
cpu0_L2C LOAD         ACCESS:     281374 HIT:       8564 MISS:     272810
cpu0_L2C RFO          ACCESS:      11981 HIT:       9018 MISS:       2963
cpu0_L2C PREFETCH     ACCESS:     503647 HIT:       8847 MISS:     494800
cpu0_L2C WRITE        ACCESS:     256373 HIT:     256371 MISS:          2
cpu0_L2C TRANSLATION  ACCESS:       1617 HIT:       1457 MISS:        160
cpu0_L2C PREFETCH REQUESTED:     136849 ISSUED:     136849 USEFUL:      45369 USELESS:       5573
cpu0_L2C AVERAGE MISS LATENCY: 939.8 cycles
cpu0_STLB TOTAL        ACCESS:      36455 HIT:          0 MISS:      36455
cpu0_STLB LOAD         ACCESS:      36455 HIT:          0 MISS:      36455
cpu0_STLB RFO          ACCESS:          0 HIT:          0 MISS:          0
cpu0_STLB PREFETCH     ACCESS:          0 HIT:          0 MISS:          0
cpu0_STLB WRITE        ACCESS:          0 HIT:          0 MISS:          0
cpu0_STLB TRANSLATION  ACCESS:          0 HIT:          0 MISS:          0
cpu0_STLB PREFETCH REQUESTED:          0 ISSUED:          0 USEFUL:          0 USELESS:          0
cpu0_STLB AVERAGE MISS LATENCY: 208.9 cycles

DRAM Statistics

Channel 0 RQ ROW_BUFFER_HIT:     436601
  ROW_BUFFER_MISS:     213166
 AVG DBUS CONGESTED CYCLE: 3.874
WQ ROW_BUFFER_HIT: Channel 0 
  ROW_BUFFER_MISS:      91437
  FULL:     152410
