WARNING: physical memory size is smaller than virtual memory size.

*** ChampSim Multicore Out-of-Order Simulator ***
Warmup Instructions: 25000000
Simulation Instructions: 25000000
Number of CPUs: 1
Page size: 4096

Off-chip DRAM Size: 4 GiB Channels: 1 Width: 64-bit Data Race: 800 MT/s
Heartbeat CPU 0 instructions: 10000000 cycles: 2501836 heartbeat IPC: 3.997 cumulative IPC: 3.997 (Simulation time: 00 hr 00 min 36 sec)
Heartbeat CPU 0 instructions: 20000000 cycles: 5004592 heartbeat IPC: 3.996 cumulative IPC: 3.996 (Simulation time: 00 hr 01 min 13 sec)
Warmup finished CPU 0 instructions: 25000002 cycles: 6255966 cumulative IPC: 3.996 (Simulation time: 00 hr 01 min 33 sec)
Warmup complete CPU 0 instructions: 25000002 cycles: 6255966 cumulative IPC: 3.996 (Simulation time: 00 hr 01 min 33 sec)
Heartbeat CPU 0 instructions: 30000002 cycles: 8047754 heartbeat IPC: 3.286 cumulative IPC: 2.791 (Simulation time: 00 hr 01 min 59 sec)
Heartbeat CPU 0 instructions: 40000001 cycles: 11733237 heartbeat IPC: 2.713 cumulative IPC: 2.739 (Simulation time: 00 hr 02 min 47 sec)
Heartbeat CPU 0 instructions: 50000002 cycles: 19348188 heartbeat IPC: 1.313 cumulative IPC: 1.91 (Simulation time: 00 hr 04 min 06 sec)
Simulation finished CPU 0 instructions: 25000000 cycles: 13092223 cumulative IPC: 1.91 (Simulation time: 00 hr 04 min 06 sec)
Simulation complete CPU 0 instructions: 25000000 cycles: 13092223 cumulative IPC: 1.91 (Simulation time: 00 hr 04 min 06 sec)

ChampSim completed all CPUs

=== Simulation ===
CPU 0 runs ./traces/tonto_422B.trace.xz
Region of Interest Statistics

CPU 0 cumulative IPC: 1.91 instructions: 25000000 cycles: 13092223
CPU 0 Branch Prediction Accuracy: 94.53% MPKI: 6.23 Average ROB Occupancy at Mispredict: 68.04
Branch type MPKI
BRANCH_DIRECT_JUMP: 0.0016
BRANCH_INDIRECT: 0.0002
BRANCH_CONDITIONAL: 5.18
BRANCH_DIRECT_CALL: 0.00444
BRANCH_INDIRECT_CALL: 0
BRANCH_RETURN: 1.04

LLC TOTAL        ACCESS:     142778 HIT:      66596 MISS:      76182
LLC LOAD         ACCESS:       3140 HIT:       1937 MISS:       1203
LLC RFO          ACCESS:      53931 HIT:      12468 MISS:      41463
LLC PREFETCH     ACCESS:      31617 HIT:      20683 MISS:      10934
LLC WRITE        ACCESS:      54017 HIT:      31496 MISS:      22521
LLC TRANSLATION  ACCESS:         73 HIT:         12 MISS:         61
LLC PREFETCH REQUESTED:          0 ISSUED:          0 USEFUL:          0 USELESS:          0
LLC AVERAGE MISS LATENCY: 788.1 cycles
cpu0_DTLB TOTAL        ACCESS:    3637484 HIT:    3620647 MISS:      16837
cpu0_DTLB LOAD         ACCESS:    3637484 HIT:    3620647 MISS:      16837
cpu0_DTLB RFO          ACCESS:          0 HIT:          0 MISS:          0
cpu0_DTLB PREFETCH     ACCESS:          0 HIT:          0 MISS:          0
cpu0_DTLB WRITE        ACCESS:          0 HIT:          0 MISS:          0
cpu0_DTLB TRANSLATION  ACCESS:          0 HIT:          0 MISS:          0
cpu0_DTLB PREFETCH REQUESTED:          0 ISSUED:          0 USEFUL:          0 USELESS:          0
cpu0_DTLB AVERAGE MISS LATENCY: 10.51 cycles
cpu0_ITLB TOTAL        ACCESS:    1281827 HIT:    1281745 MISS:         82
cpu0_ITLB LOAD         ACCESS:    1281827 HIT:    1281745 MISS:         82
cpu0_ITLB RFO          ACCESS:          0 HIT:          0 MISS:          0
cpu0_ITLB PREFETCH     ACCESS:          0 HIT:          0 MISS:          0
cpu0_ITLB WRITE        ACCESS:          0 HIT:          0 MISS:          0
cpu0_ITLB TRANSLATION  ACCESS:          0 HIT:          0 MISS:          0
cpu0_ITLB PREFETCH REQUESTED:          0 ISSUED:          0 USEFUL:          0 USELESS:          0
cpu0_ITLB AVERAGE MISS LATENCY: 128.9 cycles
cpu0_L1D TOTAL        ACCESS:    6975645 HIT:    6351967 MISS:     623678
cpu0_L1D LOAD         ACCESS:    2424645 HIT:    2339723 MISS:      84922
cpu0_L1D RFO          ACCESS:          0 HIT:          0 MISS:          0
cpu0_L1D PREFETCH     ACCESS:    2269703 HIT:    2126770 MISS:     142933
cpu0_L1D WRITE        ACCESS:    2280635 HIT:    1884918 MISS:     395717
cpu0_L1D TRANSLATION  ACCESS:        662 HIT:        556 MISS:        106
cpu0_L1D PREFETCH REQUESTED:    2705577 ISSUED:    2269709 USEFUL:      50159 USELESS:       5080
cpu0_L1D AVERAGE MISS LATENCY: 81.97 cycles
cpu0_L1I TOTAL        ACCESS:    1563798 HIT:    1562817 MISS:        981
cpu0_L1I LOAD         ACCESS:    1563798 HIT:    1562817 MISS:        981
cpu0_L1I RFO          ACCESS:          0 HIT:          0 MISS:          0
cpu0_L1I PREFETCH     ACCESS:          0 HIT:          0 MISS:          0
cpu0_L1I WRITE        ACCESS:          0 HIT:          0 MISS:          0
cpu0_L1I TRANSLATION  ACCESS:          0 HIT:          0 MISS:          0
cpu0_L1I PREFETCH REQUESTED:          0 ISSUED:          0 USEFUL:          0 USELESS:          0
cpu0_L1I AVERAGE MISS LATENCY: 184.3 cycles
cpu0_L2C TOTAL        ACCESS:     266905 HIT:     168136 MISS:      98769
cpu0_L2C LOAD         ACCESS:      21182 HIT:      16673 MISS:       4509
cpu0_L2C RFO          ACCESS:      57900 HIT:       3969 MISS:      53931
cpu0_L2C PREFETCH     ACCESS:     120148 HIT:      79910 MISS:      40238
cpu0_L2C WRITE        ACCESS:      67570 HIT:      67552 MISS:         18
cpu0_L2C TRANSLATION  ACCESS:        105 HIT:         32 MISS:         73
cpu0_L2C PREFETCH REQUESTED:      64999 ISSUED:      64999 USEFUL:       6326 USELESS:        836
cpu0_L2C AVERAGE MISS LATENCY: 622.5 cycles
cpu0_STLB TOTAL        ACCESS:       9226 HIT:       8566 MISS:        660
cpu0_STLB LOAD         ACCESS:       9226 HIT:       8566 MISS:        660
cpu0_STLB RFO          ACCESS:          0 HIT:          0 MISS:          0
cpu0_STLB PREFETCH     ACCESS:          0 HIT:          0 MISS:          0
cpu0_STLB WRITE        ACCESS:          0 HIT:          0 MISS:          0
cpu0_STLB TRANSLATION  ACCESS:          0 HIT:          0 MISS:          0
cpu0_STLB PREFETCH REQUESTED:          0 ISSUED:          0 USEFUL:          0 USELESS:          0
cpu0_STLB AVERAGE MISS LATENCY: 257 cycles

DRAM Statistics

Channel 0 RQ ROW_BUFFER_HIT:      24433
  ROW_BUFFER_MISS:      28016
 AVG DBUS CONGESTED CYCLE: 3.958
WQ ROW_BUFFER_HIT: Channel 0 
  ROW_BUFFER_MISS:       6502
  FULL:      21300
