WARNING: physical memory size is smaller than virtual memory size.

*** ChampSim Multicore Out-of-Order Simulator ***
Warmup Instructions: 25000000
Simulation Instructions: 25000000
Number of CPUs: 1
Page size: 4096

Off-chip DRAM Size: 4 GiB Channels: 1 Width: 64-bit Data Race: 800 MT/s
Heartbeat CPU 0 instructions: 10000002 cycles: 2515776 heartbeat IPC: 3.975 cumulative IPC: 3.975 (Simulation time: 00 hr 00 min 43 sec)
Heartbeat CPU 0 instructions: 20000003 cycles: 5028216 heartbeat IPC: 3.98 cumulative IPC: 3.978 (Simulation time: 00 hr 01 min 28 sec)
Warmup finished CPU 0 instructions: 25000003 cycles: 6297070 cumulative IPC: 3.97 (Simulation time: 00 hr 01 min 48 sec)
Warmup complete CPU 0 instructions: 25000003 cycles: 6297070 cumulative IPC: 3.97 (Simulation time: 00 hr 01 min 48 sec)
Heartbeat CPU 0 instructions: 30000002 cycles: 11907939 heartbeat IPC: 1.454 cumulative IPC: 0.8911 (Simulation time: 00 hr 02 min 36 sec)
Heartbeat CPU 0 instructions: 40000003 cycles: 23194806 heartbeat IPC: 0.886 cumulative IPC: 0.8877 (Simulation time: 00 hr 04 min 16 sec)
Heartbeat CPU 0 instructions: 50000000 cycles: 31861617 heartbeat IPC: 1.154 cumulative IPC: 0.9779 (Simulation time: 00 hr 05 min 28 sec)
Simulation finished CPU 0 instructions: 25000001 cycles: 25564550 cumulative IPC: 0.9779 (Simulation time: 00 hr 05 min 28 sec)
Simulation complete CPU 0 instructions: 25000001 cycles: 25564550 cumulative IPC: 0.9779 (Simulation time: 00 hr 05 min 28 sec)

ChampSim completed all CPUs

=== Simulation ===
CPU 0 runs ./traces/xalancbmk_748B.trace.xz
Region of Interest Statistics

CPU 0 cumulative IPC: 0.9779 instructions: 25000001 cycles: 25564550
CPU 0 Branch Prediction Accuracy: 92.89% MPKI: 19.42 Average ROB Occupancy at Mispredict: 21.92
Branch type MPKI
BRANCH_DIRECT_JUMP: 0.00308
BRANCH_INDIRECT: 0.491
BRANCH_CONDITIONAL: 14.7
BRANCH_DIRECT_CALL: 0.125
BRANCH_INDIRECT_CALL: 0.732
BRANCH_RETURN: 3.33

LLC TOTAL        ACCESS:     260313 HIT:      68152 MISS:     192161
LLC LOAD         ACCESS:      42959 HIT:      17015 MISS:      25944
LLC RFO          ACCESS:      60702 HIT:       7308 MISS:      53394
LLC PREFETCH     ACCESS:      44072 HIT:      14913 MISS:      29159
LLC WRITE        ACCESS:      89746 HIT:      23056 MISS:      66690
LLC TRANSLATION  ACCESS:      22834 HIT:       5860 MISS:      16974
LLC PREFETCH REQUESTED:          0 ISSUED:          0 USEFUL:          0 USELESS:          0
LLC AVERAGE MISS LATENCY: 316.9 cycles
cpu0_DTLB TOTAL        ACCESS:    7499086 HIT:    7076777 MISS:     422309
cpu0_DTLB LOAD         ACCESS:    7499086 HIT:    7076777 MISS:     422309
cpu0_DTLB RFO          ACCESS:          0 HIT:          0 MISS:          0
cpu0_DTLB PREFETCH     ACCESS:          0 HIT:          0 MISS:          0
cpu0_DTLB WRITE        ACCESS:          0 HIT:          0 MISS:          0
cpu0_DTLB TRANSLATION  ACCESS:          0 HIT:          0 MISS:          0
cpu0_DTLB PREFETCH REQUESTED:          0 ISSUED:          0 USEFUL:          0 USELESS:          0
cpu0_DTLB AVERAGE MISS LATENCY: 32.13 cycles
cpu0_ITLB TOTAL        ACCESS:    1767356 HIT:    1690088 MISS:      77268
cpu0_ITLB LOAD         ACCESS:    1767356 HIT:    1690088 MISS:      77268
cpu0_ITLB RFO          ACCESS:          0 HIT:          0 MISS:          0
cpu0_ITLB PREFETCH     ACCESS:          0 HIT:          0 MISS:          0
cpu0_ITLB WRITE        ACCESS:          0 HIT:          0 MISS:          0
cpu0_ITLB TRANSLATION  ACCESS:          0 HIT:          0 MISS:          0
cpu0_ITLB PREFETCH REQUESTED:          0 ISSUED:          0 USEFUL:          0 USELESS:          0
cpu0_ITLB AVERAGE MISS LATENCY: 3.957 cycles
cpu0_L1D TOTAL        ACCESS:   14067887 HIT:   11158684 MISS:    2909203
cpu0_L1D LOAD         ACCESS:    5633329 HIT:    4353266 MISS:    1280063
cpu0_L1D RFO          ACCESS:          0 HIT:          0 MISS:          0
cpu0_L1D PREFETCH     ACCESS:    5031098 HIT:    3738358 MISS:    1292740
cpu0_L1D WRITE        ACCESS:    3368169 HIT:    3062786 MISS:     305383
cpu0_L1D TRANSLATION  ACCESS:      35291 HIT:       4274 MISS:      31017
cpu0_L1D PREFETCH REQUESTED:    6003610 ISSUED:    5031100 USEFUL:     137065 USELESS:     161807
cpu0_L1D AVERAGE MISS LATENCY: 22.78 cycles
cpu0_L1I TOTAL        ACCESS:    1933209 HIT:    1878939 MISS:      54270
cpu0_L1I LOAD         ACCESS:    1933209 HIT:    1878939 MISS:      54270
cpu0_L1I RFO          ACCESS:          0 HIT:          0 MISS:          0
cpu0_L1I PREFETCH     ACCESS:          0 HIT:          0 MISS:          0
cpu0_L1I WRITE        ACCESS:          0 HIT:          0 MISS:          0
cpu0_L1I TRANSLATION  ACCESS:          0 HIT:          0 MISS:          0
cpu0_L1I PREFETCH REQUESTED:          0 ISSUED:          0 USEFUL:          0 USELESS:          0
cpu0_L1I AVERAGE MISS LATENCY: 14.82 cycles
cpu0_L2C TOTAL        ACCESS:    1353128 HIT:    1180789 MISS:     172339
cpu0_L2C LOAD         ACCESS:     457395 HIT:     414406 MISS:      42989
cpu0_L2C RFO          ACCESS:      78757 HIT:      18055 MISS:      60702
cpu0_L2C PREFETCH     ACCESS:     647244 HIT:     601523 MISS:      45721
cpu0_L2C WRITE        ACCESS:     138910 HIT:     138817 MISS:         93
cpu0_L2C TRANSLATION  ACCESS:      30822 HIT:       7988 MISS:      22834
cpu0_L2C PREFETCH REQUESTED:     349688 ISSUED:     348401 USEFUL:       2416 USELESS:       3815
cpu0_L2C AVERAGE MISS LATENCY: 372.8 cycles
cpu0_STLB TOTAL        ACCESS:     294419 HIT:     271368 MISS:      23051
cpu0_STLB LOAD         ACCESS:     294419 HIT:     271368 MISS:      23051
cpu0_STLB RFO          ACCESS:          0 HIT:          0 MISS:          0
cpu0_STLB PREFETCH     ACCESS:          0 HIT:          0 MISS:          0
cpu0_STLB WRITE        ACCESS:          0 HIT:          0 MISS:          0
cpu0_STLB TRANSLATION  ACCESS:          0 HIT:          0 MISS:          0
cpu0_STLB PREFETCH REQUESTED:          0 ISSUED:          0 USEFUL:          0 USELESS:          0
cpu0_STLB AVERAGE MISS LATENCY: 535.7 cycles

DRAM Statistics

Channel 0 RQ ROW_BUFFER_HIT:      36446
  ROW_BUFFER_MISS:      88890
 AVG DBUS CONGESTED CYCLE: 3.957
WQ ROW_BUFFER_HIT: Channel 0 
  ROW_BUFFER_MISS:       6096
  FULL:      67498
