WARNING: physical memory size is smaller than virtual memory size.

*** ChampSim Multicore Out-of-Order Simulator ***
Warmup Instructions: 25000000
Simulation Instructions: 25000000
Number of CPUs: 1
Page size: 4096

Off-chip DRAM Size: 4 GiB Channels: 1 Width: 64-bit Data Race: 800 MT/s
Heartbeat CPU 0 instructions: 10000001 cycles: 2536642 heartbeat IPC: 3.942 cumulative IPC: 3.942 (Simulation time: 00 hr 00 min 38 sec)
Heartbeat CPU 0 instructions: 20000000 cycles: 5079348 heartbeat IPC: 3.933 cumulative IPC: 3.938 (Simulation time: 00 hr 01 min 18 sec)
Warmup finished CPU 0 instructions: 25000003 cycles: 6355159 cumulative IPC: 3.934 (Simulation time: 00 hr 01 min 38 sec)
Warmup complete CPU 0 instructions: 25000003 cycles: 6355159 cumulative IPC: 3.934 (Simulation time: 00 hr 01 min 38 sec)
Heartbeat CPU 0 instructions: 30000003 cycles: 8104998 heartbeat IPC: 3.305 cumulative IPC: 2.857 (Simulation time: 00 hr 02 min 02 sec)
Heartbeat CPU 0 instructions: 40000000 cycles: 11628427 heartbeat IPC: 2.838 cumulative IPC: 2.845 (Simulation time: 00 hr 02 min 47 sec)
Heartbeat CPU 0 instructions: 50000000 cycles: 15158066 heartbeat IPC: 2.833 cumulative IPC: 2.84 (Simulation time: 00 hr 03 min 30 sec)
Simulation finished CPU 0 instructions: 25000003 cycles: 8802911 cumulative IPC: 2.84 (Simulation time: 00 hr 03 min 30 sec)
Simulation complete CPU 0 instructions: 25000003 cycles: 8802911 cumulative IPC: 2.84 (Simulation time: 00 hr 03 min 30 sec)

ChampSim completed all CPUs

=== Simulation ===
CPU 0 runs ./traces/zeusmp_600B.trace.xz
Region of Interest Statistics

CPU 0 cumulative IPC: 2.84 instructions: 25000003 cycles: 8802911
CPU 0 Branch Prediction Accuracy: 97.56% MPKI: 0.8748 Average ROB Occupancy at Mispredict: 195.2
Branch type MPKI
BRANCH_DIRECT_JUMP: 0
BRANCH_INDIRECT: 0
BRANCH_CONDITIONAL: 0.875
BRANCH_DIRECT_CALL: 0
BRANCH_INDIRECT_CALL: 0
BRANCH_RETURN: 0

LLC TOTAL        ACCESS:      95422 HIT:       5724 MISS:      89698
LLC LOAD         ACCESS:      13237 HIT:       1188 MISS:      12049
LLC RFO          ACCESS:          0 HIT:          0 MISS:          0
LLC PREFETCH     ACCESS:      66310 HIT:       3248 MISS:      63062
LLC WRITE        ACCESS:      15822 HIT:       1285 MISS:      14537
LLC TRANSLATION  ACCESS:         53 HIT:          3 MISS:         50
LLC PREFETCH REQUESTED:          0 ISSUED:          0 USEFUL:          0 USELESS:          0
LLC AVERAGE MISS LATENCY: 241.4 cycles
cpu0_DTLB TOTAL        ACCESS:    4588993 HIT:    4573984 MISS:      15009
cpu0_DTLB LOAD         ACCESS:    4588993 HIT:    4573984 MISS:      15009
cpu0_DTLB RFO          ACCESS:          0 HIT:          0 MISS:          0
cpu0_DTLB PREFETCH     ACCESS:          0 HIT:          0 MISS:          0
cpu0_DTLB WRITE        ACCESS:          0 HIT:          0 MISS:          0
cpu0_DTLB TRANSLATION  ACCESS:          0 HIT:          0 MISS:          0
cpu0_DTLB PREFETCH REQUESTED:          0 ISSUED:          0 USEFUL:          0 USELESS:          0
cpu0_DTLB AVERAGE MISS LATENCY: 8.939 cycles
cpu0_ITLB TOTAL        ACCESS:     148537 HIT:     148537 MISS:          0
cpu0_ITLB LOAD         ACCESS:     148537 HIT:     148537 MISS:          0
cpu0_ITLB RFO          ACCESS:          0 HIT:          0 MISS:          0
cpu0_ITLB PREFETCH     ACCESS:          0 HIT:          0 MISS:          0
cpu0_ITLB WRITE        ACCESS:          0 HIT:          0 MISS:          0
cpu0_ITLB TRANSLATION  ACCESS:          0 HIT:          0 MISS:          0
cpu0_ITLB PREFETCH REQUESTED:          0 ISSUED:          0 USEFUL:          0 USELESS:          0
cpu0_ITLB AVERAGE MISS LATENCY: -nan cycles
cpu0_L1D TOTAL        ACCESS:    8431979 HIT:    7680268 MISS:     751711
cpu0_L1D LOAD         ACCESS:    3930725 HIT:    3533710 MISS:     397015
cpu0_L1D RFO          ACCESS:          0 HIT:          0 MISS:          0
cpu0_L1D PREFETCH     ACCESS:    2696751 HIT:    2355355 MISS:     341396
cpu0_L1D WRITE        ACCESS:    1803292 HIT:    1791203 MISS:      12089
cpu0_L1D TRANSLATION  ACCESS:       1211 HIT:          0 MISS:       1211
cpu0_L1D PREFETCH REQUESTED:    3930725 ISSUED:    2696754 USEFUL:      71945 USELESS:       6287
cpu0_L1D AVERAGE MISS LATENCY: 18.44 cycles
cpu0_L1I TOTAL        ACCESS:     187783 HIT:     187783 MISS:          0
cpu0_L1I LOAD         ACCESS:     187783 HIT:     187783 MISS:          0
cpu0_L1I RFO          ACCESS:          0 HIT:          0 MISS:          0
cpu0_L1I PREFETCH     ACCESS:          0 HIT:          0 MISS:          0
cpu0_L1I WRITE        ACCESS:          0 HIT:          0 MISS:          0
cpu0_L1I TRANSLATION  ACCESS:          0 HIT:          0 MISS:          0
cpu0_L1I PREFETCH REQUESTED:          0 ISSUED:          0 USEFUL:          0 USELESS:          0
cpu0_L1I AVERAGE MISS LATENCY: -nan cycles
cpu0_L2C TOTAL        ACCESS:     283331 HIT:     140077 MISS:     143254
cpu0_L2C LOAD         ACCESS:      52144 HIT:      26547 MISS:      25597
cpu0_L2C RFO          ACCESS:       6147 HIT:       6147 MISS:          0
cpu0_L2C PREFETCH     ACCESS:     190361 HIT:      72781 MISS:     117580
cpu0_L2C WRITE        ACCESS:      33468 HIT:      33444 MISS:         24
cpu0_L2C TRANSLATION  ACCESS:       1211 HIT:       1158 MISS:         53
cpu0_L2C PREFETCH REQUESTED:     112125 ISSUED:     112125 USEFUL:      25950 USELESS:      10629
cpu0_L2C AVERAGE MISS LATENCY: 156.8 cycles
cpu0_STLB TOTAL        ACCESS:       1545 HIT:        335 MISS:       1210
cpu0_STLB LOAD         ACCESS:       1545 HIT:        335 MISS:       1210
cpu0_STLB RFO          ACCESS:          0 HIT:          0 MISS:          0
cpu0_STLB PREFETCH     ACCESS:          0 HIT:          0 MISS:          0
cpu0_STLB WRITE        ACCESS:          0 HIT:          0 MISS:          0
cpu0_STLB TRANSLATION  ACCESS:          0 HIT:          0 MISS:          0
cpu0_STLB PREFETCH REQUESTED:          0 ISSUED:          0 USEFUL:          0 USELESS:          0
cpu0_STLB AVERAGE MISS LATENCY: 219.1 cycles

DRAM Statistics

Channel 0 RQ ROW_BUFFER_HIT:      58991
  ROW_BUFFER_MISS:      16156
 AVG DBUS CONGESTED CYCLE: 3.948
WQ ROW_BUFFER_HIT: Channel 0 
  ROW_BUFFER_MISS:       5903
  FULL:       8952
