WARNING: physical memory size is smaller than virtual memory size.

*** ChampSim Multicore Out-of-Order Simulator ***
Warmup Instructions: 25000000
Simulation Instructions: 25000000
Number of CPUs: 1
Page size: 4096

Off-chip DRAM Size: 4 GiB Channels: 1 Width: 64-bit Data Race: 800 MT/s
Heartbeat CPU 0 instructions: 10000001 cycles: 2516695 heartbeat IPC: 3.973 cumulative IPC: 3.973 (Simulation time: 00 hr 00 min 41 sec)
Heartbeat CPU 0 instructions: 20000001 cycles: 5148934 heartbeat IPC: 3.799 cumulative IPC: 3.884 (Simulation time: 00 hr 01 min 21 sec)
Warmup finished CPU 0 instructions: 25000000 cycles: 6552219 cumulative IPC: 3.816 (Simulation time: 00 hr 01 min 44 sec)
Warmup complete CPU 0 instructions: 25000000 cycles: 6552219 cumulative IPC: 3.816 (Simulation time: 00 hr 01 min 44 sec)
Heartbeat CPU 0 instructions: 30000003 cycles: 10222936 heartbeat IPC: 1.971 cumulative IPC: 1.362 (Simulation time: 00 hr 02 min 28 sec)
Heartbeat CPU 0 instructions: 40000001 cycles: 17567430 heartbeat IPC: 1.362 cumulative IPC: 1.362 (Simulation time: 00 hr 03 min 45 sec)
Heartbeat CPU 0 instructions: 50000000 cycles: 24843503 heartbeat IPC: 1.374 cumulative IPC: 1.367 (Simulation time: 00 hr 04 min 48 sec)
Simulation finished CPU 0 instructions: 25000000 cycles: 18291285 cumulative IPC: 1.367 (Simulation time: 00 hr 04 min 48 sec)
Simulation complete CPU 0 instructions: 25000000 cycles: 18291285 cumulative IPC: 1.367 (Simulation time: 00 hr 04 min 48 sec)

ChampSim completed all CPUs

=== Simulation ===
CPU 0 runs ./traces/zeusmp_100B.trace.xz
Region of Interest Statistics

CPU 0 cumulative IPC: 1.367 instructions: 25000000 cycles: 18291285
CPU 0 Branch Prediction Accuracy: 99.35% MPKI: 0.3559 Average ROB Occupancy at Mispredict: 298.7
Branch type MPKI
BRANCH_DIRECT_JUMP: 0
BRANCH_INDIRECT: 0
BRANCH_CONDITIONAL: 0.356
BRANCH_DIRECT_CALL: 0
BRANCH_INDIRECT_CALL: 0
BRANCH_RETURN: 0

LLC TOTAL        ACCESS:     204742 HIT:       3220 MISS:     201522
LLC LOAD         ACCESS:      41711 HIT:        178 MISS:      41533
LLC RFO          ACCESS:      49536 HIT:          0 MISS:      49536
LLC PREFETCH     ACCESS:      61132 HIT:          6 MISS:      61126
LLC WRITE        ACCESS:      49561 HIT:       2407 MISS:      47154
LLC TRANSLATION  ACCESS:       2802 HIT:        629 MISS:       2173
LLC PREFETCH REQUESTED:          0 ISSUED:          0 USEFUL:          0 USELESS:          0
LLC AVERAGE MISS LATENCY: 813.1 cycles
cpu0_DTLB TOTAL        ACCESS:    4667439 HIT:    3530207 MISS:    1137232
cpu0_DTLB LOAD         ACCESS:    4667439 HIT:    3530207 MISS:    1137232
cpu0_DTLB RFO          ACCESS:          0 HIT:          0 MISS:          0
cpu0_DTLB PREFETCH     ACCESS:          0 HIT:          0 MISS:          0
cpu0_DTLB WRITE        ACCESS:          0 HIT:          0 MISS:          0
cpu0_DTLB TRANSLATION  ACCESS:          0 HIT:          0 MISS:          0
cpu0_DTLB PREFETCH REQUESTED:          0 ISSUED:          0 USEFUL:          0 USELESS:          0
cpu0_DTLB AVERAGE MISS LATENCY: 10.22 cycles
cpu0_ITLB TOTAL        ACCESS:          0 HIT:          0 MISS:          0
cpu0_ITLB LOAD         ACCESS:          0 HIT:          0 MISS:          0
cpu0_ITLB RFO          ACCESS:          0 HIT:          0 MISS:          0
cpu0_ITLB PREFETCH     ACCESS:          0 HIT:          0 MISS:          0
cpu0_ITLB WRITE        ACCESS:          0 HIT:          0 MISS:          0
cpu0_ITLB TRANSLATION  ACCESS:          0 HIT:          0 MISS:          0
cpu0_ITLB PREFETCH REQUESTED:          0 ISSUED:          0 USEFUL:          0 USELESS:          0
cpu0_ITLB AVERAGE MISS LATENCY: -nan cycles
cpu0_L1D TOTAL        ACCESS:    7314419 HIT:    5398814 MISS:    1915605
cpu0_L1D LOAD         ACCESS:    3736413 HIT:    2871763 MISS:     864650
cpu0_L1D RFO          ACCESS:          0 HIT:          0 MISS:          0
cpu0_L1D PREFETCH     ACCESS:    1811170 HIT:    1460898 MISS:     350272
cpu0_L1D WRITE        ACCESS:    1763656 HIT:    1066153 MISS:     697503
cpu0_L1D TRANSLATION  ACCESS:       3180 HIT:          0 MISS:       3180
cpu0_L1D PREFETCH REQUESTED:    7496789 ISSUED:    1811170 USEFUL:      60531 USELESS:     186909
cpu0_L1D AVERAGE MISS LATENCY: 96.35 cycles
cpu0_L1I TOTAL        ACCESS:          0 HIT:          0 MISS:          0
cpu0_L1I LOAD         ACCESS:          0 HIT:          0 MISS:          0
cpu0_L1I RFO          ACCESS:          0 HIT:          0 MISS:          0
cpu0_L1I PREFETCH     ACCESS:          0 HIT:          0 MISS:          0
cpu0_L1I WRITE        ACCESS:          0 HIT:          0 MISS:          0
cpu0_L1I TRANSLATION  ACCESS:          0 HIT:          0 MISS:          0
cpu0_L1I PREFETCH REQUESTED:          0 ISSUED:          0 USEFUL:          0 USELESS:          0
cpu0_L1I AVERAGE MISS LATENCY: -nan cycles
cpu0_L2C TOTAL        ACCESS:    2293198 HIT:    2138016 MISS:     155182
cpu0_L2C LOAD         ACCESS:     845597 HIT:     803886 MISS:      41711
cpu0_L2C RFO          ACCESS:     545011 HIT:     495475 MISS:      49536
cpu0_L2C PREFETCH     ACCESS:     334385 HIT:     273252 MISS:      61133
cpu0_L2C WRITE        ACCESS:     565025 HIT:     565025 MISS:          0
cpu0_L2C TRANSLATION  ACCESS:       3180 HIT:        378 MISS:       2802
cpu0_L2C PREFETCH REQUESTED:      86938 ISSUED:      86828 USEFUL:          0 USELESS:         70
cpu0_L2C AVERAGE MISS LATENCY: 1077 cycles
cpu0_STLB TOTAL        ACCESS:    1052038 HIT:    1050076 MISS:       1962
cpu0_STLB LOAD         ACCESS:    1052038 HIT:    1050076 MISS:       1962
cpu0_STLB RFO          ACCESS:          0 HIT:          0 MISS:          0
cpu0_STLB PREFETCH     ACCESS:          0 HIT:          0 MISS:          0
cpu0_STLB WRITE        ACCESS:          0 HIT:          0 MISS:          0
cpu0_STLB TRANSLATION  ACCESS:          0 HIT:          0 MISS:          0
cpu0_STLB PREFETCH REQUESTED:          0 ISSUED:          0 USEFUL:          0 USELESS:          0
cpu0_STLB AVERAGE MISS LATENCY: 1747 cycles

DRAM Statistics

Channel 0 RQ ROW_BUFFER_HIT:      28631
  ROW_BUFFER_MISS:     125726
 AVG DBUS CONGESTED CYCLE: 3.987
WQ ROW_BUFFER_HIT: Channel 0 
  ROW_BUFFER_MISS:       1746
  FULL:      47743
