WARNING: physical memory size is smaller than virtual memory size.

*** ChampSim Multicore Out-of-Order Simulator ***
Warmup Instructions: 25000000
Simulation Instructions: 25000000
Number of CPUs: 1
Page size: 4096

Off-chip DRAM Size: 4 GiB Channels: 1 Width: 64-bit Data Race: 800 MT/s
Heartbeat CPU 0 instructions: 10000001 cycles: 2500075 heartbeat IPC: 4 cumulative IPC: 4 (Simulation time: 00 hr 00 min 44 sec)
Heartbeat CPU 0 instructions: 20000001 cycles: 5000075 heartbeat IPC: 4 cumulative IPC: 4 (Simulation time: 00 hr 01 min 27 sec)
Warmup finished CPU 0 instructions: 25000001 cycles: 6250076 cumulative IPC: 4 (Simulation time: 00 hr 01 min 50 sec)
Warmup complete CPU 0 instructions: 25000001 cycles: 6250076 cumulative IPC: 4 (Simulation time: 00 hr 01 min 50 sec)
Heartbeat CPU 0 instructions: 30000001 cycles: 12902715 heartbeat IPC: 1.265 cumulative IPC: 0.7516 (Simulation time: 00 hr 02 min 47 sec)
Heartbeat CPU 0 instructions: 40000000 cycles: 26165191 heartbeat IPC: 0.754 cumulative IPC: 0.7532 (Simulation time: 00 hr 04 min 39 sec)
Heartbeat CPU 0 instructions: 50000000 cycles: 39361279 heartbeat IPC: 0.7578 cumulative IPC: 0.755 (Simulation time: 00 hr 07 min 21 sec)
Simulation finished CPU 0 instructions: 25000000 cycles: 33111205 cumulative IPC: 0.755 (Simulation time: 00 hr 07 min 21 sec)
Simulation complete CPU 0 instructions: 25000000 cycles: 33111205 cumulative IPC: 0.755 (Simulation time: 00 hr 07 min 21 sec)

ChampSim completed all CPUs

=== Simulation ===
CPU 0 runs ./traces/602.gcc_s-1850B.champsimtrace.xz
Region of Interest Statistics

CPU 0 cumulative IPC: 0.755 instructions: 25000000 cycles: 33111205
CPU 0 Branch Prediction Accuracy: 87.84% MPKI: 31.17 Average ROB Occupancy at Mispredict: 12.83
Branch type MPKI
BRANCH_DIRECT_JUMP: 0.0119
BRANCH_INDIRECT: 0
BRANCH_CONDITIONAL: 31.2
BRANCH_DIRECT_CALL: 0
BRANCH_INDIRECT_CALL: 0
BRANCH_RETURN: 0

LLC TOTAL        ACCESS:     479376 HIT:       3187 MISS:     476189
LLC LOAD         ACCESS:     100388 HIT:        269 MISS:     100119
LLC RFO          ACCESS:          1 HIT:          0 MISS:          1
LLC PREFETCH     ACCESS:     377202 HIT:       2198 MISS:     375004
LLC WRITE        ACCESS:        623 HIT:        452 MISS:        171
LLC TRANSLATION  ACCESS:       1162 HIT:        268 MISS:        894
LLC PREFETCH REQUESTED:          0 ISSUED:          0 USEFUL:          0 USELESS:          0
LLC AVERAGE MISS LATENCY: 178.5 cycles
cpu0_DTLB TOTAL        ACCESS:    6070726 HIT:    6038840 MISS:      31886
cpu0_DTLB LOAD         ACCESS:    6070726 HIT:    6038840 MISS:      31886
cpu0_DTLB RFO          ACCESS:          0 HIT:          0 MISS:          0
cpu0_DTLB PREFETCH     ACCESS:          0 HIT:          0 MISS:          0
cpu0_DTLB WRITE        ACCESS:          0 HIT:          0 MISS:          0
cpu0_DTLB TRANSLATION  ACCESS:          0 HIT:          0 MISS:          0
cpu0_DTLB PREFETCH REQUESTED:          0 ISSUED:          0 USEFUL:          0 USELESS:          0
cpu0_DTLB AVERAGE MISS LATENCY: 61.32 cycles
cpu0_ITLB TOTAL        ACCESS:          0 HIT:          0 MISS:          0
cpu0_ITLB LOAD         ACCESS:          0 HIT:          0 MISS:          0
cpu0_ITLB RFO          ACCESS:          0 HIT:          0 MISS:          0
cpu0_ITLB PREFETCH     ACCESS:          0 HIT:          0 MISS:          0
cpu0_ITLB WRITE        ACCESS:          0 HIT:          0 MISS:          0
cpu0_ITLB TRANSLATION  ACCESS:          0 HIT:          0 MISS:          0
cpu0_ITLB PREFETCH REQUESTED:          0 ISSUED:          0 USEFUL:          0 USELESS:          0
cpu0_ITLB AVERAGE MISS LATENCY: -nan cycles
cpu0_L1D TOTAL        ACCESS:   13458372 HIT:   10784658 MISS:    2673714
cpu0_L1D LOAD         ACCESS:    5715828 HIT:    4754534 MISS:     961294
cpu0_L1D RFO          ACCESS:          0 HIT:          0 MISS:          0
cpu0_L1D PREFETCH     ACCESS:    5468229 HIT:    3757245 MISS:    1710984
cpu0_L1D WRITE        ACCESS:    2266493 HIT:    2266490 MISS:          3
cpu0_L1D TRANSLATION  ACCESS:       7822 HIT:       6389 MISS:       1433
cpu0_L1D PREFETCH REQUESTED:    6135572 ISSUED:    5468233 USEFUL:     354198 USELESS:      44870
cpu0_L1D AVERAGE MISS LATENCY: 21.61 cycles
cpu0_L1I TOTAL        ACCESS:          0 HIT:          0 MISS:          0
cpu0_L1I LOAD         ACCESS:          0 HIT:          0 MISS:          0
cpu0_L1I RFO          ACCESS:          0 HIT:          0 MISS:          0
cpu0_L1I PREFETCH     ACCESS:          0 HIT:          0 MISS:          0
cpu0_L1I WRITE        ACCESS:          0 HIT:          0 MISS:          0
cpu0_L1I TRANSLATION  ACCESS:          0 HIT:          0 MISS:          0
cpu0_L1I PREFETCH REQUESTED:          0 ISSUED:          0 USEFUL:          0 USELESS:          0
cpu0_L1I AVERAGE MISS LATENCY: -nan cycles
cpu0_L2C TOTAL        ACCESS:    1287702 HIT:     445991 MISS:     841711
cpu0_L2C LOAD         ACCESS:     324212 HIT:     190949 MISS:     133263
cpu0_L2C RFO          ACCESS:          1 HIT:          0 MISS:          1
cpu0_L2C PREFETCH     ACCESS:     961250 HIT:     253965 MISS:     707285
cpu0_L2C WRITE        ACCESS:        806 HIT:        806 MISS:          0
cpu0_L2C TRANSLATION  ACCESS:       1433 HIT:        271 MISS:       1162
cpu0_L2C PREFETCH REQUESTED:     562181 ISSUED:     562181 USEFUL:     144643 USELESS:      67492
cpu0_L2C AVERAGE MISS LATENCY: 106.3 cycles
cpu0_STLB TOTAL        ACCESS:       8099 HIT:        366 MISS:       7733
cpu0_STLB LOAD         ACCESS:       8099 HIT:        366 MISS:       7733
cpu0_STLB RFO          ACCESS:          0 HIT:          0 MISS:          0
cpu0_STLB PREFETCH     ACCESS:          0 HIT:          0 MISS:          0
cpu0_STLB WRITE        ACCESS:          0 HIT:          0 MISS:          0
cpu0_STLB TRANSLATION  ACCESS:          0 HIT:          0 MISS:          0
cpu0_STLB PREFETCH REQUESTED:          0 ISSUED:          0 USEFUL:          0 USELESS:          0
cpu0_STLB AVERAGE MISS LATENCY: 250 cycles

DRAM Statistics

Channel 0 RQ ROW_BUFFER_HIT:     420245
  ROW_BUFFER_MISS:      27656
 AVG DBUS CONGESTED CYCLE: 3.89
WQ ROW_BUFFER_HIT: Channel 0 
  ROW_BUFFER_MISS:        344
  FULL:        262
