WARNING: physical memory size is smaller than virtual memory size.

*** ChampSim Multicore Out-of-Order Simulator ***
Warmup Instructions: 25000000
Simulation Instructions: 25000000
Number of CPUs: 1
Page size: 4096

Off-chip DRAM Size: 4 GiB Channels: 1 Width: 64-bit Data Race: 800 MT/s
Heartbeat CPU 0 instructions: 10000002 cycles: 2500136 heartbeat IPC: 4 cumulative IPC: 4 (Simulation time: 00 hr 00 min 49 sec)
Heartbeat CPU 0 instructions: 20000003 cycles: 5000151 heartbeat IPC: 4 cumulative IPC: 4 (Simulation time: 00 hr 01 min 36 sec)
Warmup finished CPU 0 instructions: 25000003 cycles: 6250152 cumulative IPC: 4 (Simulation time: 00 hr 02 min 00 sec)
Warmup complete CPU 0 instructions: 25000003 cycles: 6250152 cumulative IPC: 4 (Simulation time: 00 hr 02 min 00 sec)
Heartbeat CPU 0 instructions: 30000000 cycles: 14052877 heartbeat IPC: 1.105 cumulative IPC: 0.6408 (Simulation time: 00 hr 03 min 34 sec)
Heartbeat CPU 0 instructions: 40000001 cycles: 29727437 heartbeat IPC: 0.638 cumulative IPC: 0.6389 (Simulation time: 00 hr 07 min 29 sec)
Heartbeat CPU 0 instructions: 50000003 cycles: 45341265 heartbeat IPC: 0.6405 cumulative IPC: 0.6395 (Simulation time: 00 hr 11 min 54 sec)
Simulation finished CPU 0 instructions: 25000000 cycles: 39091114 cumulative IPC: 0.6395 (Simulation time: 00 hr 11 min 54 sec)
Simulation complete CPU 0 instructions: 25000000 cycles: 39091114 cumulative IPC: 0.6395 (Simulation time: 00 hr 11 min 54 sec)

ChampSim completed all CPUs

=== Simulation ===
CPU 0 runs ./traces/603.bwaves_s-2609B.champsimtrace.xz
Region of Interest Statistics

CPU 0 cumulative IPC: 0.6395 instructions: 25000000 cycles: 39091114
CPU 0 Branch Prediction Accuracy: 81.23% MPKI: 4.685 Average ROB Occupancy at Mispredict: 300.6
Branch type MPKI
BRANCH_DIRECT_JUMP: 0
BRANCH_INDIRECT: 0
BRANCH_CONDITIONAL: 4.68
BRANCH_DIRECT_CALL: 0
BRANCH_INDIRECT_CALL: 0
BRANCH_RETURN: 0

LLC TOTAL        ACCESS:     503520 HIT:      21782 MISS:     481738
LLC LOAD         ACCESS:     236308 HIT:      10613 MISS:     225695
LLC RFO          ACCESS:      12181 HIT:          0 MISS:      12181
LLC PREFETCH     ACCESS:     242638 HIT:       1622 MISS:     241016
LLC WRITE        ACCESS:      12255 HIT:       9449 MISS:       2806
LLC TRANSLATION  ACCESS:        138 HIT:         98 MISS:         40
LLC PREFETCH REQUESTED:          0 ISSUED:          0 USEFUL:          0 USELESS:          0
LLC AVERAGE MISS LATENCY: 1023 cycles
cpu0_DTLB TOTAL        ACCESS:    6671872 HIT:    6648087 MISS:      23785
cpu0_DTLB LOAD         ACCESS:    6671872 HIT:    6648087 MISS:      23785
cpu0_DTLB RFO          ACCESS:          0 HIT:          0 MISS:          0
cpu0_DTLB PREFETCH     ACCESS:          0 HIT:          0 MISS:          0
cpu0_DTLB WRITE        ACCESS:          0 HIT:          0 MISS:          0
cpu0_DTLB TRANSLATION  ACCESS:          0 HIT:          0 MISS:          0
cpu0_DTLB PREFETCH REQUESTED:          0 ISSUED:          0 USEFUL:          0 USELESS:          0
cpu0_DTLB AVERAGE MISS LATENCY: 56.88 cycles
cpu0_ITLB TOTAL        ACCESS:          0 HIT:          0 MISS:          0
cpu0_ITLB LOAD         ACCESS:          0 HIT:          0 MISS:          0
cpu0_ITLB RFO          ACCESS:          0 HIT:          0 MISS:          0
cpu0_ITLB PREFETCH     ACCESS:          0 HIT:          0 MISS:          0
cpu0_ITLB WRITE        ACCESS:          0 HIT:          0 MISS:          0
cpu0_ITLB TRANSLATION  ACCESS:          0 HIT:          0 MISS:          0
cpu0_ITLB PREFETCH REQUESTED:          0 ISSUED:          0 USEFUL:          0 USELESS:          0
cpu0_ITLB AVERAGE MISS LATENCY: -nan cycles
cpu0_L1D TOTAL        ACCESS:    9593153 HIT:    8365253 MISS:    1227900
cpu0_L1D LOAD         ACCESS:    6388235 HIT:    5632104 MISS:     756131
cpu0_L1D RFO          ACCESS:          0 HIT:          0 MISS:          0
cpu0_L1D PREFETCH     ACCESS:    1789123 HIT:    1387953 MISS:     401170
cpu0_L1D WRITE        ACCESS:    1408364 HIT:    1344936 MISS:      63428
cpu0_L1D TRANSLATION  ACCESS:       7431 HIT:        260 MISS:       7171
cpu0_L1D PREFETCH REQUESTED:    9449134 ISSUED:    1789130 USEFUL:     191921 USELESS:       5985
cpu0_L1D AVERAGE MISS LATENCY: 226.3 cycles
cpu0_L1I TOTAL        ACCESS:          0 HIT:          0 MISS:          0
cpu0_L1I LOAD         ACCESS:          0 HIT:          0 MISS:          0
cpu0_L1I RFO          ACCESS:          0 HIT:          0 MISS:          0
cpu0_L1I PREFETCH     ACCESS:          0 HIT:          0 MISS:          0
cpu0_L1I WRITE        ACCESS:          0 HIT:          0 MISS:          0
cpu0_L1I TRANSLATION  ACCESS:          0 HIT:          0 MISS:          0
cpu0_L1I PREFETCH REQUESTED:          0 ISSUED:          0 USEFUL:          0 USELESS:          0
cpu0_L1I AVERAGE MISS LATENCY: -nan cycles
cpu0_L2C TOTAL        ACCESS:     694070 HIT:     111671 MISS:     582399
cpu0_L2C LOAD         ACCESS:     311582 HIT:      47064 MISS:     264518
cpu0_L2C RFO          ACCESS:      14874 HIT:       2692 MISS:      12182
cpu0_L2C PREFETCH     ACCESS:     344145 HIT:      38668 MISS:     305477
cpu0_L2C WRITE        ACCESS:      16298 HIT:      16214 MISS:         84
cpu0_L2C TRANSLATION  ACCESS:       7171 HIT:       7033 MISS:        138
cpu0_L2C PREFETCH REQUESTED:     146233 ISSUED:     146233 USEFUL:      61848 USELESS:      11375
cpu0_L2C AVERAGE MISS LATENCY: 814.8 cycles
cpu0_STLB TOTAL        ACCESS:      13761 HIT:       6344 MISS:       7417
cpu0_STLB LOAD         ACCESS:      13761 HIT:       6344 MISS:       7417
cpu0_STLB RFO          ACCESS:          0 HIT:          0 MISS:          0
cpu0_STLB PREFETCH     ACCESS:          0 HIT:          0 MISS:          0
cpu0_STLB WRITE        ACCESS:          0 HIT:          0 MISS:          0
cpu0_STLB TRANSLATION  ACCESS:          0 HIT:          0 MISS:          0
cpu0_STLB PREFETCH REQUESTED:          0 ISSUED:          0 USEFUL:          0 USELESS:          0
cpu0_STLB AVERAGE MISS LATENCY: 220.2 cycles

DRAM Statistics

Channel 0 RQ ROW_BUFFER_HIT:     340442
  ROW_BUFFER_MISS:     135087
 AVG DBUS CONGESTED CYCLE: 3.761
WQ ROW_BUFFER_HIT: Channel 0 
  ROW_BUFFER_MISS:        349
  FULL:      11788
