WARNING: physical memory size is smaller than virtual memory size.

*** ChampSim Multicore Out-of-Order Simulator ***
Warmup Instructions: 25000000
Simulation Instructions: 25000000
Number of CPUs: 1
Page size: 4096

Off-chip DRAM Size: 4 GiB Channels: 1 Width: 64-bit Data Race: 800 MT/s
Heartbeat CPU 0 instructions: 10000000 cycles: 2963453 heartbeat IPC: 3.374 cumulative IPC: 3.374 (Simulation time: 00 hr 00 min 55 sec)
Heartbeat CPU 0 instructions: 20000000 cycles: 5907545 heartbeat IPC: 3.397 cumulative IPC: 3.386 (Simulation time: 00 hr 01 min 50 sec)
Warmup finished CPU 0 instructions: 25000003 cycles: 7392669 cumulative IPC: 3.382 (Simulation time: 00 hr 02 min 17 sec)
Warmup complete CPU 0 instructions: 25000003 cycles: 7392669 cumulative IPC: 3.382 (Simulation time: 00 hr 02 min 17 sec)
Heartbeat CPU 0 instructions: 30000001 cycles: 41265737 heartbeat IPC: 0.2828 cumulative IPC: 0.1476 (Simulation time: 00 hr 08 min 29 sec)
Heartbeat CPU 0 instructions: 40000002 cycles: 108888476 heartbeat IPC: 0.1479 cumulative IPC: 0.1478 (Simulation time: 00 hr 17 min 17 sec)
Heartbeat CPU 0 instructions: 50000001 cycles: 178915556 heartbeat IPC: 0.1428 cumulative IPC: 0.1458 (Simulation time: 00 hr 20 min 53 sec)
Simulation finished CPU 0 instructions: 25000002 cycles: 171522889 cumulative IPC: 0.1458 (Simulation time: 00 hr 20 min 53 sec)
Simulation complete CPU 0 instructions: 25000002 cycles: 171522889 cumulative IPC: 0.1458 (Simulation time: 00 hr 20 min 53 sec)

ChampSim completed all CPUs

=== Simulation ===
CPU 0 runs ./traces/619.lbm_s-2677B.champsimtrace.xz
Region of Interest Statistics

CPU 0 cumulative IPC: 0.1458 instructions: 25000002 cycles: 171522889
CPU 0 Branch Prediction Accuracy: 95.14% MPKI: 0.8683 Average ROB Occupancy at Mispredict: 293.8
Branch type MPKI
BRANCH_DIRECT_JUMP: 0
BRANCH_INDIRECT: 0
BRANCH_CONDITIONAL: 0.868
BRANCH_DIRECT_CALL: 0
BRANCH_INDIRECT_CALL: 0
BRANCH_RETURN: 0

LLC TOTAL        ACCESS:    3444509 HIT:    2247436 MISS:    1197073
LLC LOAD         ACCESS:     206464 HIT:      13468 MISS:     192996
LLC RFO          ACCESS:    1552461 HIT:     668754 MISS:     883707
LLC PREFETCH     ACCESS:     131338 HIT:      12623 MISS:     118715
LLC WRITE        ACCESS:    1553702 HIT:    1552228 MISS:       1474
LLC TRANSLATION  ACCESS:        544 HIT:        363 MISS:        181
LLC PREFETCH REQUESTED:          0 ISSUED:          0 USEFUL:          0 USELESS:          0
LLC AVERAGE MISS LATENCY: 2027 cycles
cpu0_DTLB TOTAL        ACCESS:    5142649 HIT:    5087247 MISS:      55402
cpu0_DTLB LOAD         ACCESS:    5142649 HIT:    5087247 MISS:      55402
cpu0_DTLB RFO          ACCESS:          0 HIT:          0 MISS:          0
cpu0_DTLB PREFETCH     ACCESS:          0 HIT:          0 MISS:          0
cpu0_DTLB WRITE        ACCESS:          0 HIT:          0 MISS:          0
cpu0_DTLB TRANSLATION  ACCESS:          0 HIT:          0 MISS:          0
cpu0_DTLB PREFETCH REQUESTED:          0 ISSUED:          0 USEFUL:          0 USELESS:          0
cpu0_DTLB AVERAGE MISS LATENCY: 124.5 cycles
cpu0_ITLB TOTAL        ACCESS:          0 HIT:          0 MISS:          0
cpu0_ITLB LOAD         ACCESS:          0 HIT:          0 MISS:          0
cpu0_ITLB RFO          ACCESS:          0 HIT:          0 MISS:          0
cpu0_ITLB PREFETCH     ACCESS:          0 HIT:          0 MISS:          0
cpu0_ITLB WRITE        ACCESS:          0 HIT:          0 MISS:          0
cpu0_ITLB TRANSLATION  ACCESS:          0 HIT:          0 MISS:          0
cpu0_ITLB PREFETCH REQUESTED:          0 ISSUED:          0 USEFUL:          0 USELESS:          0
cpu0_ITLB AVERAGE MISS LATENCY: -nan cycles
cpu0_L1D TOTAL        ACCESS:    8041585 HIT:    4908544 MISS:    3133041
cpu0_L1D LOAD         ACCESS:    1728534 HIT:    1157011 MISS:     571523
cpu0_L1D RFO          ACCESS:          0 HIT:          0 MISS:          0
cpu0_L1D PREFETCH     ACCESS:    1726377 HIT:     963361 MISS:     763016
cpu0_L1D WRITE        ACCESS:    4568180 HIT:    2788158 MISS:    1780022
cpu0_L1D TRANSLATION  ACCESS:      18494 HIT:         14 MISS:      18480
cpu0_L1D PREFETCH REQUESTED:   17226954 ISSUED:    1726379 USEFUL:      72474 USELESS:       2624
cpu0_L1D AVERAGE MISS LATENCY: 706 cycles
cpu0_L1I TOTAL        ACCESS:          0 HIT:          0 MISS:          0
cpu0_L1I LOAD         ACCESS:          0 HIT:          0 MISS:          0
cpu0_L1I RFO          ACCESS:          0 HIT:          0 MISS:          0
cpu0_L1I PREFETCH     ACCESS:          0 HIT:          0 MISS:          0
cpu0_L1I WRITE        ACCESS:          0 HIT:          0 MISS:          0
cpu0_L1I TRANSLATION  ACCESS:          0 HIT:          0 MISS:          0
cpu0_L1I PREFETCH REQUESTED:          0 ISSUED:          0 USEFUL:          0 USELESS:          0
cpu0_L1I AVERAGE MISS LATENCY: -nan cycles
cpu0_L2C TOTAL        ACCESS:    3739638 HIT:    1845124 MISS:    1894514
cpu0_L2C LOAD         ACCESS:     223401 HIT:      16020 MISS:     207381
cpu0_L2C RFO          ACCESS:    1675317 HIT:     122857 MISS:    1552460
cpu0_L2C PREFETCH     ACCESS:     147111 HIT:      12982 MISS:     134129
cpu0_L2C WRITE        ACCESS:    1675329 HIT:    1675329 MISS:          0
cpu0_L2C TRANSLATION  ACCESS:      18480 HIT:      17936 MISS:        544
cpu0_L2C PREFETCH REQUESTED:      72011 ISSUED:      72011 USEFUL:      17200 USELESS:        477
cpu0_L2C AVERAGE MISS LATENCY: 1269 cycles
cpu0_STLB TOTAL        ACCESS:      34048 HIT:      15572 MISS:      18476
cpu0_STLB LOAD         ACCESS:      34048 HIT:      15572 MISS:      18476
cpu0_STLB RFO          ACCESS:          0 HIT:          0 MISS:          0
cpu0_STLB PREFETCH     ACCESS:          0 HIT:          0 MISS:          0
cpu0_STLB WRITE        ACCESS:          0 HIT:          0 MISS:          0
cpu0_STLB TRANSLATION  ACCESS:          0 HIT:          0 MISS:          0
cpu0_STLB PREFETCH REQUESTED:          0 ISSUED:          0 USEFUL:          0 USELESS:          0
cpu0_STLB AVERAGE MISS LATENCY: 444.5 cycles

DRAM Statistics

Channel 0 RQ ROW_BUFFER_HIT:      85629
  ROW_BUFFER_MISS:    1096739
 AVG DBUS CONGESTED CYCLE: 3.984
WQ ROW_BUFFER_HIT: Channel 0 
  ROW_BUFFER_MISS:      19143
  FULL:     870909
