WARNING: physical memory size is smaller than virtual memory size.

*** ChampSim Multicore Out-of-Order Simulator ***
Warmup Instructions: 25000000
Simulation Instructions: 25000000
Number of CPUs: 1
Page size: 4096

Off-chip DRAM Size: 4 GiB Channels: 1 Width: 64-bit Data Race: 800 MT/s
Heartbeat CPU 0 instructions: 10000003 cycles: 2500092 heartbeat IPC: 4 cumulative IPC: 4 (Simulation time: 00 hr 00 min 46 sec)
Heartbeat CPU 0 instructions: 20000003 cycles: 5002128 heartbeat IPC: 3.997 cumulative IPC: 3.998 (Simulation time: 00 hr 01 min 29 sec)
Warmup finished CPU 0 instructions: 25000000 cycles: 6252184 cumulative IPC: 3.999 (Simulation time: 00 hr 01 min 49 sec)
Warmup complete CPU 0 instructions: 25000000 cycles: 6252184 cumulative IPC: 3.999 (Simulation time: 00 hr 01 min 49 sec)
Heartbeat CPU 0 instructions: 30000003 cycles: 10549877 heartbeat IPC: 1.803 cumulative IPC: 1.163 (Simulation time: 00 hr 02 min 48 sec)
Heartbeat CPU 0 instructions: 40000000 cycles: 49184196 heartbeat IPC: 0.2588 cumulative IPC: 0.3494 (Simulation time: 00 hr 11 min 30 sec)
Heartbeat CPU 0 instructions: 50000003 cycles: 69253893 heartbeat IPC: 0.4983 cumulative IPC: 0.3968 (Simulation time: 00 hr 14 min 59 sec)
Simulation finished CPU 0 instructions: 25000003 cycles: 63001710 cumulative IPC: 0.3968 (Simulation time: 00 hr 14 min 59 sec)
Simulation complete CPU 0 instructions: 25000003 cycles: 63001710 cumulative IPC: 0.3968 (Simulation time: 00 hr 14 min 59 sec)

ChampSim completed all CPUs

=== Simulation ===
CPU 0 runs ./traces/621.wrf_s-6673B.champsimtrace.xz
Region of Interest Statistics

CPU 0 cumulative IPC: 0.3968 instructions: 25000003 cycles: 63001710
CPU 0 Branch Prediction Accuracy: 96.82% MPKI: 2.139 Average ROB Occupancy at Mispredict: 300.5
Branch type MPKI
BRANCH_DIRECT_JUMP: 0.00072
BRANCH_INDIRECT: 0
BRANCH_CONDITIONAL: 2.12
BRANCH_DIRECT_CALL: 0.00672
BRANCH_INDIRECT_CALL: 0
BRANCH_RETURN: 0.0062

LLC TOTAL        ACCESS:     950910 HIT:     241136 MISS:     709774
LLC LOAD         ACCESS:     170842 HIT:      17663 MISS:     153179
LLC RFO          ACCESS:     134878 HIT:       7478 MISS:     127400
LLC PREFETCH     ACCESS:     398971 HIT:      27331 MISS:     371640
LLC WRITE        ACCESS:     245307 HIT:     188444 MISS:      56863
LLC TRANSLATION  ACCESS:        912 HIT:        220 MISS:        692
LLC PREFETCH REQUESTED:          0 ISSUED:          0 USEFUL:          0 USELESS:          0
LLC AVERAGE MISS LATENCY: 1175 cycles
cpu0_DTLB TOTAL        ACCESS:    6209619 HIT:    6141312 MISS:      68307
cpu0_DTLB LOAD         ACCESS:    6209619 HIT:    6141312 MISS:      68307
cpu0_DTLB RFO          ACCESS:          0 HIT:          0 MISS:          0
cpu0_DTLB PREFETCH     ACCESS:          0 HIT:          0 MISS:          0
cpu0_DTLB WRITE        ACCESS:          0 HIT:          0 MISS:          0
cpu0_DTLB TRANSLATION  ACCESS:          0 HIT:          0 MISS:          0
cpu0_DTLB PREFETCH REQUESTED:          0 ISSUED:          0 USEFUL:          0 USELESS:          0
cpu0_DTLB AVERAGE MISS LATENCY: 27.89 cycles
cpu0_ITLB TOTAL        ACCESS:       7235 HIT:       7128 MISS:        107
cpu0_ITLB LOAD         ACCESS:       7235 HIT:       7128 MISS:        107
cpu0_ITLB RFO          ACCESS:          0 HIT:          0 MISS:          0
cpu0_ITLB PREFETCH     ACCESS:          0 HIT:          0 MISS:          0
cpu0_ITLB WRITE        ACCESS:          0 HIT:          0 MISS:          0
cpu0_ITLB TRANSLATION  ACCESS:          0 HIT:          0 MISS:          0
cpu0_ITLB PREFETCH REQUESTED:          0 ISSUED:          0 USEFUL:          0 USELESS:          0
cpu0_ITLB AVERAGE MISS LATENCY: 228.8 cycles
cpu0_L1D TOTAL        ACCESS:   10394514 HIT:    6490633 MISS:    3903881
cpu0_L1D LOAD         ACCESS:    5518171 HIT:    3737304 MISS:    1780867
cpu0_L1D RFO          ACCESS:          0 HIT:          0 MISS:          0
cpu0_L1D PREFETCH     ACCESS:    3004252 HIT:    1689950 MISS:    1314302
cpu0_L1D WRITE        ACCESS:    1864221 HIT:    1059161 MISS:     805060
cpu0_L1D TRANSLATION  ACCESS:       7870 HIT:       4218 MISS:       3652
cpu0_L1D PREFETCH REQUESTED:   16679886 ISSUED:    3004257 USEFUL:     299766 USELESS:      22435
cpu0_L1D AVERAGE MISS LATENCY: 148.7 cycles
cpu0_L1I TOTAL        ACCESS:       9492 HIT:       7815 MISS:       1677
cpu0_L1I LOAD         ACCESS:       9492 HIT:       7815 MISS:       1677
cpu0_L1I RFO          ACCESS:          0 HIT:          0 MISS:          0
cpu0_L1I PREFETCH     ACCESS:          0 HIT:          0 MISS:          0
cpu0_L1I WRITE        ACCESS:          0 HIT:          0 MISS:          0
cpu0_L1I TRANSLATION  ACCESS:          0 HIT:          0 MISS:          0
cpu0_L1I PREFETCH REQUESTED:          0 ISSUED:          0 USEFUL:          0 USELESS:          0
cpu0_L1I AVERAGE MISS LATENCY: 421.7 cycles
cpu0_L2C TOTAL        ACCESS:    1238178 HIT:     488852 MISS:     749326
cpu0_L2C LOAD         ACCESS:     227958 HIT:      45585 MISS:     182373
cpu0_L2C RFO          ACCESS:     162211 HIT:      27304 MISS:     134907
cpu0_L2C PREFETCH     ACCESS:     542738 HIT:     111690 MISS:     431048
cpu0_L2C WRITE        ACCESS:     301932 HIT:     301846 MISS:         86
cpu0_L2C TRANSLATION  ACCESS:       3339 HIT:       2427 MISS:        912
cpu0_L2C PREFETCH REQUESTED:     220545 ISSUED:     220545 USEFUL:      25949 USELESS:      10673
cpu0_L2C AVERAGE MISS LATENCY: 1031 cycles
cpu0_STLB TOTAL        ACCESS:      23594 HIT:      15691 MISS:       7903
cpu0_STLB LOAD         ACCESS:      23594 HIT:      15691 MISS:       7903
cpu0_STLB RFO          ACCESS:          0 HIT:          0 MISS:          0
cpu0_STLB PREFETCH     ACCESS:          0 HIT:          0 MISS:          0
cpu0_STLB WRITE        ACCESS:          0 HIT:          0 MISS:          0
cpu0_STLB TRANSLATION  ACCESS:          0 HIT:          0 MISS:          0
cpu0_STLB PREFETCH REQUESTED:          0 ISSUED:          0 USEFUL:          0 USELESS:          0
cpu0_STLB AVERAGE MISS LATENCY: 351.8 cycles

DRAM Statistics

Channel 0 RQ ROW_BUFFER_HIT:     170120
  ROW_BUFFER_MISS:     384659
 AVG DBUS CONGESTED CYCLE: 3.931
WQ ROW_BUFFER_HIT: Channel 0 
  ROW_BUFFER_MISS:       4139
  FULL:     232956
