WARNING: physical memory size is smaller than virtual memory size.

*** ChampSim Multicore Out-of-Order Simulator ***
Warmup Instructions: 25000000
Simulation Instructions: 25000000
Number of CPUs: 1
Page size: 4096

Off-chip DRAM Size: 4 GiB Channels: 1 Width: 64-bit Data Race: 800 MT/s
Heartbeat CPU 0 instructions: 10000001 cycles: 2504959 heartbeat IPC: 3.992 cumulative IPC: 3.992 (Simulation time: 00 hr 00 min 46 sec)
Heartbeat CPU 0 instructions: 20000000 cycles: 5005894 heartbeat IPC: 3.999 cumulative IPC: 3.995 (Simulation time: 00 hr 01 min 31 sec)
Warmup finished CPU 0 instructions: 25000000 cycles: 6257455 cumulative IPC: 3.995 (Simulation time: 00 hr 01 min 53 sec)
Warmup complete CPU 0 instructions: 25000000 cycles: 6257455 cumulative IPC: 3.995 (Simulation time: 00 hr 01 min 53 sec)
Heartbeat CPU 0 instructions: 30000000 cycles: 16690363 heartbeat IPC: 0.8558 cumulative IPC: 0.4793 (Simulation time: 00 hr 03 min 19 sec)
Heartbeat CPU 0 instructions: 40000003 cycles: 37472108 heartbeat IPC: 0.4812 cumulative IPC: 0.4805 (Simulation time: 00 hr 06 min 43 sec)
Heartbeat CPU 0 instructions: 50000003 cycles: 63474828 heartbeat IPC: 0.3846 cumulative IPC: 0.4369 (Simulation time: 00 hr 11 min 40 sec)
Simulation finished CPU 0 instructions: 25000003 cycles: 57217374 cumulative IPC: 0.4369 (Simulation time: 00 hr 11 min 40 sec)
Simulation complete CPU 0 instructions: 25000003 cycles: 57217374 cumulative IPC: 0.4369 (Simulation time: 00 hr 11 min 40 sec)

ChampSim completed all CPUs

=== Simulation ===
CPU 0 runs ./traces/623.xalancbmk_s-10B.champsimtrace.xz
Region of Interest Statistics

CPU 0 cumulative IPC: 0.4369 instructions: 25000003 cycles: 57217374
CPU 0 Branch Prediction Accuracy: 94.41% MPKI: 14.5 Average ROB Occupancy at Mispredict: 40.02
Branch type MPKI
BRANCH_DIRECT_JUMP: 0.0934
BRANCH_INDIRECT: 0.0223
BRANCH_CONDITIONAL: 13.9
BRANCH_DIRECT_CALL: 4e-05
BRANCH_INDIRECT_CALL: 0.127
BRANCH_RETURN: 0.402

LLC TOTAL        ACCESS:     962615 HIT:     183813 MISS:     778802
LLC LOAD         ACCESS:     632439 HIT:     123742 MISS:     508697
LLC RFO          ACCESS:       6017 HIT:       3579 MISS:       2438
LLC PREFETCH     ACCESS:     278326 HIT:      38740 MISS:     239586
LLC WRITE        ACCESS:      13138 HIT:      12746 MISS:        392
LLC TRANSLATION  ACCESS:      32695 HIT:       5006 MISS:      27689
LLC PREFETCH REQUESTED:          0 ISSUED:          0 USEFUL:          0 USELESS:          0
LLC AVERAGE MISS LATENCY: 320.1 cycles
cpu0_DTLB TOTAL        ACCESS:    5868863 HIT:    5490098 MISS:     378765
cpu0_DTLB LOAD         ACCESS:    5868863 HIT:    5490098 MISS:     378765
cpu0_DTLB RFO          ACCESS:          0 HIT:          0 MISS:          0
cpu0_DTLB PREFETCH     ACCESS:          0 HIT:          0 MISS:          0
cpu0_DTLB WRITE        ACCESS:          0 HIT:          0 MISS:          0
cpu0_DTLB TRANSLATION  ACCESS:          0 HIT:          0 MISS:          0
cpu0_DTLB PREFETCH REQUESTED:          0 ISSUED:          0 USEFUL:          0 USELESS:          0
cpu0_DTLB AVERAGE MISS LATENCY: 30.57 cycles
cpu0_ITLB TOTAL        ACCESS:     344076 HIT:     302824 MISS:      41252
cpu0_ITLB LOAD         ACCESS:     344076 HIT:     302824 MISS:      41252
cpu0_ITLB RFO          ACCESS:          0 HIT:          0 MISS:          0
cpu0_ITLB PREFETCH     ACCESS:          0 HIT:          0 MISS:          0
cpu0_ITLB WRITE        ACCESS:          0 HIT:          0 MISS:          0
cpu0_ITLB TRANSLATION  ACCESS:          0 HIT:          0 MISS:          0
cpu0_ITLB PREFETCH REQUESTED:          0 ISSUED:          0 USEFUL:          0 USELESS:          0
cpu0_ITLB AVERAGE MISS LATENCY: 6.968 cycles
cpu0_L1D TOTAL        ACCESS:   12292648 HIT:    9988816 MISS:    2303832
cpu0_L1D LOAD         ACCESS:    6087358 HIT:    4858517 MISS:    1228841
cpu0_L1D RFO          ACCESS:          0 HIT:          0 MISS:          0
cpu0_L1D PREFETCH     ACCESS:    4846268 HIT:    3900679 MISS:     945589
cpu0_L1D WRITE        ACCESS:    1231493 HIT:    1154752 MISS:      76741
cpu0_L1D TRANSLATION  ACCESS:     127529 HIT:      74868 MISS:      52661
cpu0_L1D PREFETCH REQUESTED:    6088700 ISSUED:    4846271 USEFUL:      39061 USELESS:     275349
cpu0_L1D AVERAGE MISS LATENCY: 119.8 cycles
cpu0_L1I TOTAL        ACCESS:     382653 HIT:     244936 MISS:     137717
cpu0_L1I LOAD         ACCESS:     382653 HIT:     244936 MISS:     137717
cpu0_L1I RFO          ACCESS:          0 HIT:          0 MISS:          0
cpu0_L1I PREFETCH     ACCESS:          0 HIT:          0 MISS:          0
cpu0_L1I WRITE        ACCESS:          0 HIT:          0 MISS:          0
cpu0_L1I TRANSLATION  ACCESS:          0 HIT:          0 MISS:          0
cpu0_L1I PREFETCH REQUESTED:          0 ISSUED:          0 USEFUL:          0 USELESS:          0
cpu0_L1I AVERAGE MISS LATENCY: 13.94 cycles
cpu0_L2C TOTAL        ACCESS:    1230265 HIT:     278663 MISS:     951602
cpu0_L2C LOAD         ACCESS:     776575 HIT:     143647 MISS:     632928
cpu0_L2C RFO          ACCESS:      18764 HIT:      12745 MISS:       6019
cpu0_L2C PREFETCH     ACCESS:     335791 HIT:      56073 MISS:     279718
cpu0_L2C WRITE        ACCESS:      46864 HIT:      46622 MISS:        242
cpu0_L2C TRANSLATION  ACCESS:      52271 HIT:      19576 MISS:      32695
cpu0_L2C PREFETCH REQUESTED:      21342 ISSUED:      21342 USEFUL:       6405 USELESS:       6519
cpu0_L2C AVERAGE MISS LATENCY: 282.6 cycles
cpu0_STLB TOTAL        ACCESS:     186120 HIT:      59260 MISS:     126860
cpu0_STLB LOAD         ACCESS:     186120 HIT:      59260 MISS:     126860
cpu0_STLB RFO          ACCESS:          0 HIT:          0 MISS:          0
cpu0_STLB PREFETCH     ACCESS:          0 HIT:          0 MISS:          0
cpu0_STLB WRITE        ACCESS:          0 HIT:          0 MISS:          0
cpu0_STLB TRANSLATION  ACCESS:          0 HIT:          0 MISS:          0
cpu0_STLB PREFETCH REQUESTED:          0 ISSUED:          0 USEFUL:          0 USELESS:          0
cpu0_STLB AVERAGE MISS LATENCY: 86.43 cycles

DRAM Statistics

Channel 0 RQ ROW_BUFFER_HIT:     449467
  ROW_BUFFER_MISS:     328873
 AVG DBUS CONGESTED CYCLE: 3.868
WQ ROW_BUFFER_HIT: Channel 0 
  ROW_BUFFER_MISS:       1211
  FULL:       3201
