WARNING: physical memory size is smaller than virtual memory size.

*** ChampSim Multicore Out-of-Order Simulator ***
Warmup Instructions: 25000000
Simulation Instructions: 25000000
Number of CPUs: 1
Page size: 4096

Off-chip DRAM Size: 4 GiB Channels: 1 Width: 64-bit Data Race: 800 MT/s
Heartbeat CPU 0 instructions: 10000002 cycles: 2511678 heartbeat IPC: 3.981 cumulative IPC: 3.981 (Simulation time: 00 hr 00 min 41 sec)
Heartbeat CPU 0 instructions: 20000000 cycles: 5012358 heartbeat IPC: 3.999 cumulative IPC: 3.99 (Simulation time: 00 hr 01 min 25 sec)
Warmup finished CPU 0 instructions: 25000000 cycles: 6262689 cumulative IPC: 3.992 (Simulation time: 00 hr 01 min 47 sec)
Warmup complete CPU 0 instructions: 25000000 cycles: 6262689 cumulative IPC: 3.992 (Simulation time: 00 hr 01 min 47 sec)
Heartbeat CPU 0 instructions: 30000003 cycles: 7999497 heartbeat IPC: 3.348 cumulative IPC: 2.879 (Simulation time: 00 hr 02 min 15 sec)
Heartbeat CPU 0 instructions: 40000003 cycles: 11460695 heartbeat IPC: 2.889 cumulative IPC: 2.886 (Simulation time: 00 hr 03 min 13 sec)
Heartbeat CPU 0 instructions: 50000002 cycles: 14920829 heartbeat IPC: 2.89 cumulative IPC: 2.887 (Simulation time: 00 hr 04 min 11 sec)
Simulation finished CPU 0 instructions: 25000002 cycles: 8658141 cumulative IPC: 2.887 (Simulation time: 00 hr 04 min 11 sec)
Simulation complete CPU 0 instructions: 25000002 cycles: 8658141 cumulative IPC: 2.887 (Simulation time: 00 hr 04 min 11 sec)

ChampSim completed all CPUs

=== Simulation ===
CPU 0 runs ./traces/625.x264_s-20B.champsimtrace.xz
Region of Interest Statistics

CPU 0 cumulative IPC: 2.887 instructions: 25000002 cycles: 8658141
CPU 0 Branch Prediction Accuracy: 92.14% MPKI: 3.331 Average ROB Occupancy at Mispredict: 127.2
Branch type MPKI
BRANCH_DIRECT_JUMP: 0.0004
BRANCH_INDIRECT: 0.00028
BRANCH_CONDITIONAL: 3.22
BRANCH_DIRECT_CALL: 4e-05
BRANCH_INDIRECT_CALL: 0.00696
BRANCH_RETURN: 0.104

LLC TOTAL        ACCESS:      56437 HIT:      19841 MISS:      36596
LLC LOAD         ACCESS:      12569 HIT:       5913 MISS:       6656
LLC RFO          ACCESS:       9410 HIT:        386 MISS:       9024
LLC PREFETCH     ACCESS:      22688 HIT:       1968 MISS:      20720
LLC WRITE        ACCESS:      11146 HIT:      11002 MISS:        144
LLC TRANSLATION  ACCESS:        624 HIT:        572 MISS:         52
LLC PREFETCH REQUESTED:          0 ISSUED:          0 USEFUL:          0 USELESS:          0
LLC AVERAGE MISS LATENCY: 447 cycles
cpu0_DTLB TOTAL        ACCESS:    4293479 HIT:    4124911 MISS:     168568
cpu0_DTLB LOAD         ACCESS:    4293479 HIT:    4124911 MISS:     168568
cpu0_DTLB RFO          ACCESS:          0 HIT:          0 MISS:          0
cpu0_DTLB PREFETCH     ACCESS:          0 HIT:          0 MISS:          0
cpu0_DTLB WRITE        ACCESS:          0 HIT:          0 MISS:          0
cpu0_DTLB TRANSLATION  ACCESS:          0 HIT:          0 MISS:          0
cpu0_DTLB PREFETCH REQUESTED:          0 ISSUED:          0 USEFUL:          0 USELESS:          0
cpu0_DTLB AVERAGE MISS LATENCY: 3.948 cycles
cpu0_ITLB TOTAL        ACCESS:     565077 HIT:     565077 MISS:          0
cpu0_ITLB LOAD         ACCESS:     565077 HIT:     565077 MISS:          0
cpu0_ITLB RFO          ACCESS:          0 HIT:          0 MISS:          0
cpu0_ITLB PREFETCH     ACCESS:          0 HIT:          0 MISS:          0
cpu0_ITLB WRITE        ACCESS:          0 HIT:          0 MISS:          0
cpu0_ITLB TRANSLATION  ACCESS:          0 HIT:          0 MISS:          0
cpu0_ITLB PREFETCH REQUESTED:          0 ISSUED:          0 USEFUL:          0 USELESS:          0
cpu0_ITLB AVERAGE MISS LATENCY: -nan cycles
cpu0_L1D TOTAL        ACCESS:    7824218 HIT:    7074322 MISS:     749896
cpu0_L1D LOAD         ACCESS:    3165730 HIT:    2795430 MISS:     370300
cpu0_L1D RFO          ACCESS:          0 HIT:          0 MISS:          0
cpu0_L1D PREFETCH     ACCESS:    2116641 HIT:    1855733 MISS:     260908
cpu0_L1D WRITE        ACCESS:    2541055 HIT:    2423118 MISS:     117937
cpu0_L1D TRANSLATION  ACCESS:        792 HIT:         41 MISS:        751
cpu0_L1D PREFETCH REQUESTED:    3226196 ISSUED:    2116650 USEFUL:      16637 USELESS:      75689
cpu0_L1D AVERAGE MISS LATENCY: 23.94 cycles
cpu0_L1I TOTAL        ACCESS:     681544 HIT:     599116 MISS:      82428
cpu0_L1I LOAD         ACCESS:     681544 HIT:     599116 MISS:      82428
cpu0_L1I RFO          ACCESS:          0 HIT:          0 MISS:          0
cpu0_L1I PREFETCH     ACCESS:          0 HIT:          0 MISS:          0
cpu0_L1I WRITE        ACCESS:          0 HIT:          0 MISS:          0
cpu0_L1I TRANSLATION  ACCESS:          0 HIT:          0 MISS:          0
cpu0_L1I PREFETCH REQUESTED:          0 ISSUED:          0 USEFUL:          0 USELESS:          0
cpu0_L1I AVERAGE MISS LATENCY: 7.09 cycles
cpu0_L2C TOTAL        ACCESS:     417153 HIT:     370292 MISS:      46861
cpu0_L2C LOAD         ACCESS:     186300 HIT:     173705 MISS:      12595
cpu0_L2C RFO          ACCESS:      58581 HIT:      49171 MISS:       9410
cpu0_L2C PREFETCH     ACCESS:     100846 HIT:      76755 MISS:      24091
cpu0_L2C WRITE        ACCESS:      70688 HIT:      70547 MISS:        141
cpu0_L2C TRANSLATION  ACCESS:        738 HIT:        114 MISS:        624
cpu0_L2C PREFETCH REQUESTED:       8529 ISSUED:       8529 USEFUL:       1676 USELESS:        416
cpu0_L2C AVERAGE MISS LATENCY: 364.8 cycles
cpu0_STLB TOTAL        ACCESS:      86076 HIT:      85284 MISS:        792
cpu0_STLB LOAD         ACCESS:      86076 HIT:      85284 MISS:        792
cpu0_STLB RFO          ACCESS:          0 HIT:          0 MISS:          0
cpu0_STLB PREFETCH     ACCESS:          0 HIT:          0 MISS:          0
cpu0_STLB WRITE        ACCESS:          0 HIT:          0 MISS:          0
cpu0_STLB TRANSLATION  ACCESS:          0 HIT:          0 MISS:          0
cpu0_STLB PREFETCH REQUESTED:          0 ISSUED:          0 USEFUL:          0 USELESS:          0
cpu0_STLB AVERAGE MISS LATENCY: 284.5 cycles

DRAM Statistics

Channel 0 RQ ROW_BUFFER_HIT:      15362
  ROW_BUFFER_MISS:      20200
 AVG DBUS CONGESTED CYCLE: 3.92
WQ ROW_BUFFER_HIT: Channel 0 
  ROW_BUFFER_MISS:        664
  FULL:       7920
