WARNING: physical memory size is smaller than virtual memory size.

*** ChampSim Multicore Out-of-Order Simulator ***
Warmup Instructions: 25000000
Simulation Instructions: 25000000
Number of CPUs: 1
Page size: 4096

Off-chip DRAM Size: 4 GiB Channels: 1 Width: 64-bit Data Race: 800 MT/s
Heartbeat CPU 0 instructions: 10000000 cycles: 2500349 heartbeat IPC: 3.999 cumulative IPC: 3.999 (Simulation time: 00 hr 00 min 44 sec)
Heartbeat CPU 0 instructions: 20000000 cycles: 5000349 heartbeat IPC: 4 cumulative IPC: 4 (Simulation time: 00 hr 01 min 25 sec)
Warmup finished CPU 0 instructions: 25000000 cycles: 6250350 cumulative IPC: 4 (Simulation time: 00 hr 01 min 49 sec)
Warmup complete CPU 0 instructions: 25000000 cycles: 6250350 cumulative IPC: 4 (Simulation time: 00 hr 01 min 49 sec)
Heartbeat CPU 0 instructions: 30000000 cycles: 21009664 heartbeat IPC: 0.6246 cumulative IPC: 0.3388 (Simulation time: 00 hr 04 min 33 sec)
Heartbeat CPU 0 instructions: 40000003 cycles: 49812886 heartbeat IPC: 0.3472 cumulative IPC: 0.3443 (Simulation time: 00 hr 12 min 05 sec)
Heartbeat CPU 0 instructions: 50000002 cycles: 66416536 heartbeat IPC: 0.6023 cumulative IPC: 0.4155 (Simulation time: 00 hr 15 min 02 sec)
Simulation finished CPU 0 instructions: 25000002 cycles: 60166187 cumulative IPC: 0.4155 (Simulation time: 00 hr 15 min 02 sec)
Simulation complete CPU 0 instructions: 25000002 cycles: 60166187 cumulative IPC: 0.4155 (Simulation time: 00 hr 15 min 02 sec)

ChampSim completed all CPUs

=== Simulation ===
CPU 0 runs ./traces/654.roms_s-523B.champsimtrace.xz
Region of Interest Statistics

CPU 0 cumulative IPC: 0.4155 instructions: 25000002 cycles: 60166187
CPU 0 Branch Prediction Accuracy: 99.85% MPKI: 0.09976 Average ROB Occupancy at Mispredict: 350.2
Branch type MPKI
BRANCH_DIRECT_JUMP: 4e-05
BRANCH_INDIRECT: 0
BRANCH_CONDITIONAL: 0.0997
BRANCH_DIRECT_CALL: 0
BRANCH_INDIRECT_CALL: 0
BRANCH_RETURN: 0

LLC TOTAL        ACCESS:     895722 HIT:     157418 MISS:     738304
LLC LOAD         ACCESS:     119296 HIT:       4192 MISS:     115104
LLC RFO          ACCESS:     155877 HIT:          0 MISS:     155877
LLC PREFETCH     ACCESS:     393594 HIT:      14149 MISS:     379445
LLC WRITE        ACCESS:     222662 HIT:     138560 MISS:      84102
LLC TRANSLATION  ACCESS:       4293 HIT:        517 MISS:       3776
LLC PREFETCH REQUESTED:          0 ISSUED:          0 USEFUL:          0 USELESS:          0
LLC AVERAGE MISS LATENCY: 931.3 cycles
cpu0_DTLB TOTAL        ACCESS:    6773492 HIT:    6682148 MISS:      91344
cpu0_DTLB LOAD         ACCESS:    6773492 HIT:    6682148 MISS:      91344
cpu0_DTLB RFO          ACCESS:          0 HIT:          0 MISS:          0
cpu0_DTLB PREFETCH     ACCESS:          0 HIT:          0 MISS:          0
cpu0_DTLB WRITE        ACCESS:          0 HIT:          0 MISS:          0
cpu0_DTLB TRANSLATION  ACCESS:          0 HIT:          0 MISS:          0
cpu0_DTLB PREFETCH REQUESTED:          0 ISSUED:          0 USEFUL:          0 USELESS:          0
cpu0_DTLB AVERAGE MISS LATENCY: 39.68 cycles
cpu0_ITLB TOTAL        ACCESS:         32 HIT:         32 MISS:          0
cpu0_ITLB LOAD         ACCESS:         32 HIT:         32 MISS:          0
cpu0_ITLB RFO          ACCESS:          0 HIT:          0 MISS:          0
cpu0_ITLB PREFETCH     ACCESS:          0 HIT:          0 MISS:          0
cpu0_ITLB WRITE        ACCESS:          0 HIT:          0 MISS:          0
cpu0_ITLB TRANSLATION  ACCESS:          0 HIT:          0 MISS:          0
cpu0_ITLB PREFETCH REQUESTED:          0 ISSUED:          0 USEFUL:          0 USELESS:          0
cpu0_ITLB AVERAGE MISS LATENCY: -nan cycles
cpu0_L1D TOTAL        ACCESS:   11862266 HIT:    5087848 MISS:    6774418
cpu0_L1D LOAD         ACCESS:    7285712 HIT:    3598849 MISS:    3686863
cpu0_L1D RFO          ACCESS:          0 HIT:          0 MISS:          0
cpu0_L1D PREFETCH     ACCESS:    2791443 HIT:     914458 MISS:    1876985
cpu0_L1D WRITE        ACCESS:    1769188 HIT:     571697 MISS:    1197491
cpu0_L1D TRANSLATION  ACCESS:      15923 HIT:       2844 MISS:      13079
cpu0_L1D PREFETCH REQUESTED:    7885335 ISSUED:    2791443 USEFUL:     391123 USELESS:      10880
cpu0_L1D AVERAGE MISS LATENCY: 60.67 cycles
cpu0_L1I TOTAL        ACCESS:         36 HIT:          6 MISS:         30
cpu0_L1I LOAD         ACCESS:         36 HIT:          6 MISS:         30
cpu0_L1I RFO          ACCESS:          0 HIT:          0 MISS:          0
cpu0_L1I PREFETCH     ACCESS:          0 HIT:          0 MISS:          0
cpu0_L1I WRITE        ACCESS:          0 HIT:          0 MISS:          0
cpu0_L1I TRANSLATION  ACCESS:          0 HIT:          0 MISS:          0
cpu0_L1I PREFETCH REQUESTED:          0 ISSUED:          0 USEFUL:          0 USELESS:          0
cpu0_L1I AVERAGE MISS LATENCY: 891.7 cycles
cpu0_L2C TOTAL        ACCESS:    1000894 HIT:     283460 MISS:     717434
cpu0_L2C LOAD         ACCESS:     142503 HIT:      17012 MISS:     125491
cpu0_L2C RFO          ACCESS:     155878 HIT:          1 MISS:     155877
cpu0_L2C PREFETCH     ACCESS:     465722 HIT:      33955 MISS:     431767
cpu0_L2C WRITE        ACCESS:     223716 HIT:     223710 MISS:          6
cpu0_L2C TRANSLATION  ACCESS:      13075 HIT:       8782 MISS:       4293
cpu0_L2C PREFETCH REQUESTED:      63716 ISSUED:      63716 USEFUL:      27330 USELESS:      17174
cpu0_L2C AVERAGE MISS LATENCY: 974.2 cycles
cpu0_STLB TOTAL        ACCESS:      15890 HIT:         12 MISS:      15878
cpu0_STLB LOAD         ACCESS:      15890 HIT:         12 MISS:      15878
cpu0_STLB RFO          ACCESS:          0 HIT:          0 MISS:          0
cpu0_STLB PREFETCH     ACCESS:          0 HIT:          0 MISS:          0
cpu0_STLB WRITE        ACCESS:          0 HIT:          0 MISS:          0
cpu0_STLB TRANSLATION  ACCESS:          0 HIT:          0 MISS:          0
cpu0_STLB PREFETCH REQUESTED:          0 ISSUED:          0 USEFUL:          0 USELESS:          0
cpu0_STLB AVERAGE MISS LATENCY: 429.8 cycles

DRAM Statistics

Channel 0 RQ ROW_BUFFER_HIT:     163168
  ROW_BUFFER_MISS:     490385
 AVG DBUS CONGESTED CYCLE: 3.921
WQ ROW_BUFFER_HIT: Channel 0 
  ROW_BUFFER_MISS:       4833
  FULL:     200362
