WARNING: physical memory size is smaller than virtual memory size.

*** ChampSim Multicore Out-of-Order Simulator ***
Warmup Instructions: 25000000
Simulation Instructions: 25000000
Number of CPUs: 1
Page size: 4096

Off-chip DRAM Size: 4 GiB Channels: 1 Width: 64-bit Data Race: 800 MT/s
Heartbeat CPU 0 instructions: 10000002 cycles: 2575066 heartbeat IPC: 3.883 cumulative IPC: 3.883 (Simulation time: 00 hr 00 min 46 sec)
Heartbeat CPU 0 instructions: 20000000 cycles: 5149924 heartbeat IPC: 3.884 cumulative IPC: 3.884 (Simulation time: 00 hr 01 min 32 sec)
Warmup finished CPU 0 instructions: 25000002 cycles: 6437358 cumulative IPC: 3.884 (Simulation time: 00 hr 01 min 55 sec)
Warmup complete CPU 0 instructions: 25000002 cycles: 6437358 cumulative IPC: 3.884 (Simulation time: 00 hr 01 min 55 sec)
Heartbeat CPU 0 instructions: 30000003 cycles: 15866218 heartbeat IPC: 0.9332 cumulative IPC: 0.5303 (Simulation time: 00 hr 03 min 29 sec)
Heartbeat CPU 0 instructions: 40000001 cycles: 34747534 heartbeat IPC: 0.5296 cumulative IPC: 0.5298 (Simulation time: 00 hr 06 min 42 sec)
Heartbeat CPU 0 instructions: 50000000 cycles: 53656557 heartbeat IPC: 0.5288 cumulative IPC: 0.5294 (Simulation time: 00 hr 09 min 59 sec)
Simulation finished CPU 0 instructions: 25000002 cycles: 47219201 cumulative IPC: 0.5294 (Simulation time: 00 hr 09 min 59 sec)
Simulation complete CPU 0 instructions: 25000002 cycles: 47219201 cumulative IPC: 0.5294 (Simulation time: 00 hr 09 min 59 sec)

ChampSim completed all CPUs

=== Simulation ===
CPU 0 runs ./traces/bwaves_1861B.trace.xz
Region of Interest Statistics

CPU 0 cumulative IPC: 0.5294 instructions: 25000002 cycles: 47219201
CPU 0 Branch Prediction Accuracy: 81.22% MPKI: 5.619 Average ROB Occupancy at Mispredict: 261.4
Branch type MPKI
BRANCH_DIRECT_JUMP: 0
BRANCH_INDIRECT: 0
BRANCH_CONDITIONAL: 5.62
BRANCH_DIRECT_CALL: 0
BRANCH_INDIRECT_CALL: 0
BRANCH_RETURN: 0

LLC TOTAL        ACCESS:     609968 HIT:      34812 MISS:     575156
LLC LOAD         ACCESS:     286064 HIT:      15521 MISS:     270543
LLC RFO          ACCESS:      14595 HIT:          0 MISS:      14595
LLC PREFETCH     ACCESS:     294210 HIT:       4300 MISS:     289910
LLC WRITE        ACCESS:      14727 HIT:      14685 MISS:         42
LLC TRANSLATION  ACCESS:        372 HIT:        306 MISS:         66
LLC PREFETCH REQUESTED:          0 ISSUED:          0 USEFUL:          0 USELESS:          0
LLC AVERAGE MISS LATENCY: 1015 cycles
cpu0_DTLB TOTAL        ACCESS:    7913483 HIT:    7892013 MISS:      21470
cpu0_DTLB LOAD         ACCESS:    7913483 HIT:    7892013 MISS:      21470
cpu0_DTLB RFO          ACCESS:          0 HIT:          0 MISS:          0
cpu0_DTLB PREFETCH     ACCESS:          0 HIT:          0 MISS:          0
cpu0_DTLB WRITE        ACCESS:          0 HIT:          0 MISS:          0
cpu0_DTLB TRANSLATION  ACCESS:          0 HIT:          0 MISS:          0
cpu0_DTLB PREFETCH REQUESTED:          0 ISSUED:          0 USEFUL:          0 USELESS:          0
cpu0_DTLB AVERAGE MISS LATENCY: 69.53 cycles
cpu0_ITLB TOTAL        ACCESS:          0 HIT:          0 MISS:          0
cpu0_ITLB LOAD         ACCESS:          0 HIT:          0 MISS:          0
cpu0_ITLB RFO          ACCESS:          0 HIT:          0 MISS:          0
cpu0_ITLB PREFETCH     ACCESS:          0 HIT:          0 MISS:          0
cpu0_ITLB WRITE        ACCESS:          0 HIT:          0 MISS:          0
cpu0_ITLB TRANSLATION  ACCESS:          0 HIT:          0 MISS:          0
cpu0_ITLB PREFETCH REQUESTED:          0 ISSUED:          0 USEFUL:          0 USELESS:          0
cpu0_ITLB AVERAGE MISS LATENCY: -nan cycles
cpu0_L1D TOTAL        ACCESS:   12003199 HIT:   10397054 MISS:    1606145
cpu0_L1D LOAD         ACCESS:    8737151 HIT:    7793783 MISS:     943368
cpu0_L1D RFO          ACCESS:          0 HIT:          0 MISS:          0
cpu0_L1D PREFETCH     ACCESS:    2554141 HIT:    1952080 MISS:     602061
cpu0_L1D WRITE        ACCESS:     703250 HIT:     651162 MISS:      52088
cpu0_L1D TRANSLATION  ACCESS:       8657 HIT:         29 MISS:       8628
cpu0_L1D PREFETCH REQUESTED:   12772096 ISSUED:    2554141 USEFUL:     227433 USELESS:      10708
cpu0_L1D AVERAGE MISS LATENCY: 207.1 cycles
cpu0_L1I TOTAL        ACCESS:          0 HIT:          0 MISS:          0
cpu0_L1I LOAD         ACCESS:          0 HIT:          0 MISS:          0
cpu0_L1I RFO          ACCESS:          0 HIT:          0 MISS:          0
cpu0_L1I PREFETCH     ACCESS:          0 HIT:          0 MISS:          0
cpu0_L1I WRITE        ACCESS:          0 HIT:          0 MISS:          0
cpu0_L1I TRANSLATION  ACCESS:          0 HIT:          0 MISS:          0
cpu0_L1I PREFETCH REQUESTED:          0 ISSUED:          0 USEFUL:          0 USELESS:          0
cpu0_L1I AVERAGE MISS LATENCY: -nan cycles
cpu0_L2C TOTAL        ACCESS:     833819 HIT:     146424 MISS:     687395
cpu0_L2C LOAD         ACCESS:     367972 HIT:      56750 MISS:     311222
cpu0_L2C RFO          ACCESS:      14989 HIT:        394 MISS:      14595
cpu0_L2C PREFETCH     ACCESS:     426364 HIT:      65284 MISS:     361080
cpu0_L2C WRITE        ACCESS:      15866 HIT:      15740 MISS:        126
cpu0_L2C TRANSLATION  ACCESS:       8628 HIT:       8256 MISS:        372
cpu0_L2C PREFETCH REQUESTED:     188237 ISSUED:     188237 USEFUL:      80147 USELESS:      12814
cpu0_L2C AVERAGE MISS LATENCY: 809.5 cycles
cpu0_STLB TOTAL        ACCESS:       8899 HIT:        257 MISS:       8642
cpu0_STLB LOAD         ACCESS:       8899 HIT:        257 MISS:       8642
cpu0_STLB RFO          ACCESS:          0 HIT:          0 MISS:          0
cpu0_STLB PREFETCH     ACCESS:          0 HIT:          0 MISS:          0
cpu0_STLB WRITE        ACCESS:          0 HIT:          0 MISS:          0
cpu0_STLB TRANSLATION  ACCESS:          0 HIT:          0 MISS:          0
cpu0_STLB PREFETCH REQUESTED:          0 ISSUED:          0 USEFUL:          0 USELESS:          0
cpu0_STLB AVERAGE MISS LATENCY: 225.3 cycles

DRAM Statistics

Channel 0 RQ ROW_BUFFER_HIT:     400745
  ROW_BUFFER_MISS:     168964
 AVG DBUS CONGESTED CYCLE: 3.815
WQ ROW_BUFFER_HIT: Channel 0 
  ROW_BUFFER_MISS:       2162
  FULL:      12369
