WARNING: physical memory size is smaller than virtual memory size.

*** ChampSim Multicore Out-of-Order Simulator ***
Warmup Instructions: 25000000
Simulation Instructions: 25000000
Number of CPUs: 1
Page size: 4096

Off-chip DRAM Size: 4 GiB Channels: 1 Width: 64-bit Data Race: 800 MT/s
Heartbeat CPU 0 instructions: 10000000 cycles: 2506854 heartbeat IPC: 3.989 cumulative IPC: 3.989 (Simulation time: 00 hr 00 min 42 sec)
Heartbeat CPU 0 instructions: 20000002 cycles: 5027202 heartbeat IPC: 3.968 cumulative IPC: 3.978 (Simulation time: 00 hr 01 min 24 sec)
Warmup finished CPU 0 instructions: 25000001 cycles: 6303630 cumulative IPC: 3.966 (Simulation time: 00 hr 01 min 45 sec)
Warmup complete CPU 0 instructions: 25000001 cycles: 6303630 cumulative IPC: 3.966 (Simulation time: 00 hr 01 min 45 sec)
Heartbeat CPU 0 instructions: 30000000 cycles: 9081532 heartbeat IPC: 2.466 cumulative IPC: 1.8 (Simulation time: 00 hr 02 min 20 sec)
Heartbeat CPU 0 instructions: 40000001 cycles: 14260700 heartbeat IPC: 1.931 cumulative IPC: 1.885 (Simulation time: 00 hr 03 min 22 sec)
Heartbeat CPU 0 instructions: 50000001 cycles: 18891732 heartbeat IPC: 2.159 cumulative IPC: 1.986 (Simulation time: 00 hr 04 min 19 sec)
Simulation finished CPU 0 instructions: 25000000 cycles: 12588103 cumulative IPC: 1.986 (Simulation time: 00 hr 04 min 19 sec)
Simulation complete CPU 0 instructions: 25000000 cycles: 12588103 cumulative IPC: 1.986 (Simulation time: 00 hr 04 min 19 sec)

ChampSim completed all CPUs

=== Simulation ===
CPU 0 runs ./traces/bzip2_281B.trace.xz
Region of Interest Statistics

CPU 0 cumulative IPC: 1.986 instructions: 25000000 cycles: 12588103
CPU 0 Branch Prediction Accuracy: 91.8% MPKI: 14.4 Average ROB Occupancy at Mispredict: 65.18
Branch type MPKI
BRANCH_DIRECT_JUMP: 0.00064
BRANCH_INDIRECT: 0
BRANCH_CONDITIONAL: 14.4
BRANCH_DIRECT_CALL: 4e-05
BRANCH_INDIRECT_CALL: 0
BRANCH_RETURN: 0.00012

LLC TOTAL        ACCESS:     915853 HIT:     841487 MISS:      74366
LLC LOAD         ACCESS:     502677 HIT:     494910 MISS:       7767
LLC RFO          ACCESS:       9425 HIT:       3616 MISS:       5809
LLC PREFETCH     ACCESS:     393397 HIT:     332619 MISS:      60778
LLC WRITE        ACCESS:      10334 HIT:      10334 MISS:          0
LLC TRANSLATION  ACCESS:         20 HIT:          8 MISS:         12
LLC PREFETCH REQUESTED:          0 ISSUED:          0 USEFUL:          0 USELESS:          0
LLC AVERAGE MISS LATENCY: 433.1 cycles
cpu0_DTLB TOTAL        ACCESS:    5623370 HIT:    5262149 MISS:     361221
cpu0_DTLB LOAD         ACCESS:    5623370 HIT:    5262149 MISS:     361221
cpu0_DTLB RFO          ACCESS:          0 HIT:          0 MISS:          0
cpu0_DTLB PREFETCH     ACCESS:          0 HIT:          0 MISS:          0
cpu0_DTLB WRITE        ACCESS:          0 HIT:          0 MISS:          0
cpu0_DTLB TRANSLATION  ACCESS:          0 HIT:          0 MISS:          0
cpu0_DTLB PREFETCH REQUESTED:          0 ISSUED:          0 USEFUL:          0 USELESS:          0
cpu0_DTLB AVERAGE MISS LATENCY: 6.614 cycles
cpu0_ITLB TOTAL        ACCESS:         76 HIT:         71 MISS:          5
cpu0_ITLB LOAD         ACCESS:         76 HIT:         71 MISS:          5
cpu0_ITLB RFO          ACCESS:          0 HIT:          0 MISS:          0
cpu0_ITLB PREFETCH     ACCESS:          0 HIT:          0 MISS:          0
cpu0_ITLB WRITE        ACCESS:          0 HIT:          0 MISS:          0
cpu0_ITLB TRANSLATION  ACCESS:          0 HIT:          0 MISS:          0
cpu0_ITLB PREFETCH REQUESTED:          0 ISSUED:          0 USEFUL:          0 USELESS:          0
cpu0_ITLB AVERAGE MISS LATENCY: 278.4 cycles
cpu0_L1D TOTAL        ACCESS:    9347543 HIT:    6998561 MISS:    2348982
cpu0_L1D LOAD         ACCESS:    4355177 HIT:    3149241 MISS:    1205936
cpu0_L1D RFO          ACCESS:          0 HIT:          0 MISS:          0
cpu0_L1D PREFETCH     ACCESS:    3110882 HIT:    2041105 MISS:    1069777
cpu0_L1D WRITE        ACCESS:    1881035 HIT:    1807996 MISS:      73039
cpu0_L1D TRANSLATION  ACCESS:        449 HIT:        219 MISS:        230
cpu0_L1D PREFETCH REQUESTED:    4743532 ISSUED:    3110878 USEFUL:      80839 USELESS:     378026
cpu0_L1D AVERAGE MISS LATENCY: 21.19 cycles
cpu0_L1I TOTAL        ACCESS:         90 HIT:         24 MISS:         66
cpu0_L1I LOAD         ACCESS:         90 HIT:         24 MISS:         66
cpu0_L1I RFO          ACCESS:          0 HIT:          0 MISS:          0
cpu0_L1I PREFETCH     ACCESS:          0 HIT:          0 MISS:          0
cpu0_L1I WRITE        ACCESS:          0 HIT:          0 MISS:          0
cpu0_L1I TRANSLATION  ACCESS:          0 HIT:          0 MISS:          0
cpu0_L1I PREFETCH REQUESTED:          0 ISSUED:          0 USEFUL:          0 USELESS:          0
cpu0_L1I AVERAGE MISS LATENCY: 199.2 cycles
cpu0_L2C TOTAL        ACCESS:    1308700 HIT:     325941 MISS:     982759
cpu0_L2C LOAD         ACCESS:     670750 HIT:     162507 MISS:     508243
cpu0_L2C RFO          ACCESS:       9663 HIT:        237 MISS:       9426
cpu0_L2C PREFETCH     ACCESS:     616791 HIT:     151909 MISS:     464882
cpu0_L2C WRITE        ACCESS:      11266 HIT:      11078 MISS:        188
cpu0_L2C TRANSLATION  ACCESS:        230 HIT:        210 MISS:         20
cpu0_L2C PREFETCH REQUESTED:     158041 ISSUED:     157913 USEFUL:      28370 USELESS:      38628
cpu0_L2C AVERAGE MISS LATENCY: 50.17 cycles
cpu0_STLB TOTAL        ACCESS:     312851 HIT:     312402 MISS:        449
cpu0_STLB LOAD         ACCESS:     312851 HIT:     312402 MISS:        449
cpu0_STLB RFO          ACCESS:          0 HIT:          0 MISS:          0
cpu0_STLB PREFETCH     ACCESS:          0 HIT:          0 MISS:          0
cpu0_STLB WRITE        ACCESS:          0 HIT:          0 MISS:          0
cpu0_STLB TRANSLATION  ACCESS:          0 HIT:          0 MISS:          0
cpu0_STLB PREFETCH REQUESTED:          0 ISSUED:          0 USEFUL:          0 USELESS:          0
cpu0_STLB AVERAGE MISS LATENCY: 219.6 cycles

DRAM Statistics

Channel 0 RQ ROW_BUFFER_HIT:      38768
  ROW_BUFFER_MISS:      35540
 AVG DBUS CONGESTED CYCLE: 3.937
WQ ROW_BUFFER_HIT: Channel 0 
  ROW_BUFFER_MISS:       2803
  FULL:      20642
