WARNING: physical memory size is smaller than virtual memory size.

*** ChampSim Multicore Out-of-Order Simulator ***
Warmup Instructions: 25000000
Simulation Instructions: 25000000
Number of CPUs: 1
Page size: 4096

Off-chip DRAM Size: 4 GiB Channels: 1 Width: 64-bit Data Race: 800 MT/s
Heartbeat CPU 0 instructions: 10000003 cycles: 2534757 heartbeat IPC: 3.945 cumulative IPC: 3.945 (Simulation time: 00 hr 00 min 36 sec)
Heartbeat CPU 0 instructions: 20000001 cycles: 5035064 heartbeat IPC: 4 cumulative IPC: 3.972 (Simulation time: 00 hr 01 min 12 sec)
Warmup finished CPU 0 instructions: 25000003 cycles: 6285146 cumulative IPC: 3.978 (Simulation time: 00 hr 01 min 29 sec)
Warmup complete CPU 0 instructions: 25000003 cycles: 6285146 cumulative IPC: 3.978 (Simulation time: 00 hr 01 min 29 sec)
Heartbeat CPU 0 instructions: 30000001 cycles: 7786240 heartbeat IPC: 3.635 cumulative IPC: 3.331 (Simulation time: 00 hr 01 min 51 sec)
Heartbeat CPU 0 instructions: 40000000 cycles: 11141288 heartbeat IPC: 2.981 cumulative IPC: 3.089 (Simulation time: 00 hr 02 min 39 sec)
Heartbeat CPU 0 instructions: 50000003 cycles: 14719943 heartbeat IPC: 2.794 cumulative IPC: 2.964 (Simulation time: 00 hr 03 min 27 sec)
Simulation finished CPU 0 instructions: 25000000 cycles: 8434798 cumulative IPC: 2.964 (Simulation time: 00 hr 03 min 27 sec)
Simulation complete CPU 0 instructions: 25000000 cycles: 8434798 cumulative IPC: 2.964 (Simulation time: 00 hr 03 min 27 sec)

ChampSim completed all CPUs

=== Simulation ===
CPU 0 runs ./traces/calculix_3812B.trace.xz
Region of Interest Statistics

CPU 0 cumulative IPC: 2.964 instructions: 25000000 cycles: 8434798
CPU 0 Branch Prediction Accuracy: 97.86% MPKI: 1.848 Average ROB Occupancy at Mispredict: 132.1
Branch type MPKI
BRANCH_DIRECT_JUMP: 0.0127
BRANCH_INDIRECT: 0.00208
BRANCH_CONDITIONAL: 1.83
BRANCH_DIRECT_CALL: 0.00068
BRANCH_INDIRECT_CALL: 0
BRANCH_RETURN: 0.00076

LLC TOTAL        ACCESS:     239055 HIT:     208451 MISS:      30604
LLC LOAD         ACCESS:      15860 HIT:      13634 MISS:       2226
LLC RFO          ACCESS:      28212 HIT:       7200 MISS:      21012
LLC PREFETCH     ACCESS:      88481 HIT:      81162 MISS:       7319
LLC WRITE        ACCESS:     106425 HIT:     106422 MISS:          3
LLC TRANSLATION  ACCESS:         77 HIT:         33 MISS:         44
LLC PREFETCH REQUESTED:          0 ISSUED:          0 USEFUL:          0 USELESS:          0
LLC AVERAGE MISS LATENCY: 681 cycles
cpu0_DTLB TOTAL        ACCESS:    5012303 HIT:    4990910 MISS:      21393
cpu0_DTLB LOAD         ACCESS:    5012303 HIT:    4990910 MISS:      21393
cpu0_DTLB RFO          ACCESS:          0 HIT:          0 MISS:          0
cpu0_DTLB PREFETCH     ACCESS:          0 HIT:          0 MISS:          0
cpu0_DTLB WRITE        ACCESS:          0 HIT:          0 MISS:          0
cpu0_DTLB TRANSLATION  ACCESS:          0 HIT:          0 MISS:          0
cpu0_DTLB PREFETCH REQUESTED:          0 ISSUED:          0 USEFUL:          0 USELESS:          0
cpu0_DTLB AVERAGE MISS LATENCY: 9.325 cycles
cpu0_ITLB TOTAL        ACCESS:      22169 HIT:      22127 MISS:         42
cpu0_ITLB LOAD         ACCESS:      22169 HIT:      22127 MISS:         42
cpu0_ITLB RFO          ACCESS:          0 HIT:          0 MISS:          0
cpu0_ITLB PREFETCH     ACCESS:          0 HIT:          0 MISS:          0
cpu0_ITLB WRITE        ACCESS:          0 HIT:          0 MISS:          0
cpu0_ITLB TRANSLATION  ACCESS:          0 HIT:          0 MISS:          0
cpu0_ITLB PREFETCH REQUESTED:          0 ISSUED:          0 USEFUL:          0 USELESS:          0
cpu0_ITLB AVERAGE MISS LATENCY: 3.095 cycles
cpu0_L1D TOTAL        ACCESS:    8975948 HIT:    7629719 MISS:    1346229
cpu0_L1D LOAD         ACCESS:    4440745 HIT:    3496484 MISS:     944261
cpu0_L1D RFO          ACCESS:          0 HIT:          0 MISS:          0
cpu0_L1D PREFETCH     ACCESS:    2167489 HIT:    1923831 MISS:     243658
cpu0_L1D WRITE        ACCESS:    2367216 HIT:    2209045 MISS:     158171
cpu0_L1D TRANSLATION  ACCESS:        498 HIT:        359 MISS:        139
cpu0_L1D PREFETCH REQUESTED:    4446555 ISSUED:    2167486 USEFUL:     104095 USELESS:      11690
cpu0_L1D AVERAGE MISS LATENCY: 17.14 cycles
cpu0_L1I TOTAL        ACCESS:      24877 HIT:      23438 MISS:       1439
cpu0_L1I LOAD         ACCESS:      24877 HIT:      23438 MISS:       1439
cpu0_L1I RFO          ACCESS:          0 HIT:          0 MISS:          0
cpu0_L1I PREFETCH     ACCESS:          0 HIT:          0 MISS:          0
cpu0_L1I WRITE        ACCESS:          0 HIT:          0 MISS:          0
cpu0_L1I TRANSLATION  ACCESS:          0 HIT:          0 MISS:          0
cpu0_L1I PREFETCH REQUESTED:          0 ISSUED:          0 USEFUL:          0 USELESS:          0
cpu0_L1I AVERAGE MISS LATENCY: 44.1 cycles
cpu0_L2C TOTAL        ACCESS:    1268450 HIT:    1028852 MISS:     239598
cpu0_L2C LOAD         ACCESS:     259351 HIT:     231870 MISS:      27481
cpu0_L2C RFO          ACCESS:      32298 HIT:       4086 MISS:      28212
cpu0_L2C PREFETCH     ACCESS:     706235 HIT:     524178 MISS:     182057
cpu0_L2C WRITE        ACCESS:     270427 HIT:     268656 MISS:       1771
cpu0_L2C TRANSLATION  ACCESS:        139 HIT:         62 MISS:         77
cpu0_L2C PREFETCH REQUESTED:     590782 ISSUED:     590449 USEFUL:      59293 USELESS:       1168
cpu0_L2C AVERAGE MISS LATENCY: 97.32 cycles
cpu0_STLB TOTAL        ACCESS:      12045 HIT:      11549 MISS:        496
cpu0_STLB LOAD         ACCESS:      12045 HIT:      11549 MISS:        496
cpu0_STLB RFO          ACCESS:          0 HIT:          0 MISS:          0
cpu0_STLB PREFETCH     ACCESS:          0 HIT:          0 MISS:          0
cpu0_STLB WRITE        ACCESS:          0 HIT:          0 MISS:          0
cpu0_STLB TRANSLATION  ACCESS:          0 HIT:          0 MISS:          0
cpu0_STLB PREFETCH REQUESTED:          0 ISSUED:          0 USEFUL:          0 USELESS:          0
cpu0_STLB AVERAGE MISS LATENCY: 277.9 cycles

DRAM Statistics

Channel 0 RQ ROW_BUFFER_HIT:      24555
  ROW_BUFFER_MISS:       5825
 AVG DBUS CONGESTED CYCLE: 3.964
WQ ROW_BUFFER_HIT: Channel 0 
  ROW_BUFFER_MISS:       1463
  FULL:       5491
