WARNING: physical memory size is smaller than virtual memory size.

*** ChampSim Multicore Out-of-Order Simulator ***
Warmup Instructions: 25000000
Simulation Instructions: 25000000
Number of CPUs: 1
Page size: 4096

Off-chip DRAM Size: 4 GiB Channels: 1 Width: 64-bit Data Race: 800 MT/s
Heartbeat CPU 0 instructions: 10000003 cycles: 2500428 heartbeat IPC: 3.999 cumulative IPC: 3.999 (Simulation time: 00 hr 00 min 34 sec)
Heartbeat CPU 0 instructions: 20000002 cycles: 5000618 heartbeat IPC: 4 cumulative IPC: 4 (Simulation time: 00 hr 01 min 08 sec)
Warmup finished CPU 0 instructions: 25000002 cycles: 6250822 cumulative IPC: 3.999 (Simulation time: 00 hr 01 min 26 sec)
Warmup complete CPU 0 instructions: 25000002 cycles: 6250822 cumulative IPC: 3.999 (Simulation time: 00 hr 01 min 26 sec)
Heartbeat CPU 0 instructions: 30000000 cycles: 7842377 heartbeat IPC: 3.519 cumulative IPC: 3.142 (Simulation time: 00 hr 01 min 50 sec)
Heartbeat CPU 0 instructions: 40000002 cycles: 10828965 heartbeat IPC: 3.348 cumulative IPC: 3.276 (Simulation time: 00 hr 02 min 34 sec)
Heartbeat CPU 0 instructions: 50000002 cycles: 13957195 heartbeat IPC: 3.197 cumulative IPC: 3.244 (Simulation time: 00 hr 03 min 19 sec)
Simulation finished CPU 0 instructions: 25000000 cycles: 7706374 cumulative IPC: 3.244 (Simulation time: 00 hr 03 min 19 sec)
Simulation complete CPU 0 instructions: 25000000 cycles: 7706374 cumulative IPC: 3.244 (Simulation time: 00 hr 03 min 19 sec)

ChampSim completed all CPUs

=== Simulation ===
CPU 0 runs ./traces/calculix_2655B.trace.xz
Region of Interest Statistics

CPU 0 cumulative IPC: 3.244 instructions: 25000000 cycles: 7706374
CPU 0 Branch Prediction Accuracy: 98.05% MPKI: 0.7955 Average ROB Occupancy at Mispredict: 271.3
Branch type MPKI
BRANCH_DIRECT_JUMP: 0.00068
BRANCH_INDIRECT: 0
BRANCH_CONDITIONAL: 0.795
BRANCH_DIRECT_CALL: 0
BRANCH_INDIRECT_CALL: 0
BRANCH_RETURN: 4e-05

LLC TOTAL        ACCESS:     237169 HIT:     205723 MISS:      31446
LLC LOAD         ACCESS:      36074 HIT:      31796 MISS:       4278
LLC RFO          ACCESS:        110 HIT:        110 MISS:          0
LLC PREFETCH     ACCESS:     175769 HIT:     148718 MISS:      27051
LLC WRITE        ACCESS:      25034 HIT:      25011 MISS:         23
LLC TRANSLATION  ACCESS:        182 HIT:         88 MISS:         94
LLC PREFETCH REQUESTED:          0 ISSUED:          0 USEFUL:          0 USELESS:          0
LLC AVERAGE MISS LATENCY: 411.3 cycles
cpu0_DTLB TOTAL        ACCESS:    3990803 HIT:    3978147 MISS:      12656
cpu0_DTLB LOAD         ACCESS:    3990803 HIT:    3978147 MISS:      12656
cpu0_DTLB RFO          ACCESS:          0 HIT:          0 MISS:          0
cpu0_DTLB PREFETCH     ACCESS:          0 HIT:          0 MISS:          0
cpu0_DTLB WRITE        ACCESS:          0 HIT:          0 MISS:          0
cpu0_DTLB TRANSLATION  ACCESS:          0 HIT:          0 MISS:          0
cpu0_DTLB PREFETCH REQUESTED:          0 ISSUED:          0 USEFUL:          0 USELESS:          0
cpu0_DTLB AVERAGE MISS LATENCY: 9.702 cycles
cpu0_ITLB TOTAL        ACCESS:        924 HIT:        924 MISS:          0
cpu0_ITLB LOAD         ACCESS:        924 HIT:        924 MISS:          0
cpu0_ITLB RFO          ACCESS:          0 HIT:          0 MISS:          0
cpu0_ITLB PREFETCH     ACCESS:          0 HIT:          0 MISS:          0
cpu0_ITLB WRITE        ACCESS:          0 HIT:          0 MISS:          0
cpu0_ITLB TRANSLATION  ACCESS:          0 HIT:          0 MISS:          0
cpu0_ITLB PREFETCH REQUESTED:          0 ISSUED:          0 USEFUL:          0 USELESS:          0
cpu0_ITLB AVERAGE MISS LATENCY: -nan cycles
cpu0_L1D TOTAL        ACCESS:    8791003 HIT:    7678911 MISS:    1112092
cpu0_L1D LOAD         ACCESS:    4692648 HIT:    4268002 MISS:     424646
cpu0_L1D RFO          ACCESS:          0 HIT:          0 MISS:          0
cpu0_L1D PREFETCH     ACCESS:    3720395 HIT:    3033969 MISS:     686426
cpu0_L1D WRITE        ACCESS:     377413 HIT:     376770 MISS:        643
cpu0_L1D TRANSLATION  ACCESS:        547 HIT:        170 MISS:        377
cpu0_L1D PREFETCH REQUESTED:    4692648 ISSUED:    3720393 USEFUL:     240895 USELESS:       8241
cpu0_L1D AVERAGE MISS LATENCY: 6.2 cycles
cpu0_L1I TOTAL        ACCESS:       1012 HIT:       1012 MISS:          0
cpu0_L1I LOAD         ACCESS:       1012 HIT:       1012 MISS:          0
cpu0_L1I RFO          ACCESS:          0 HIT:          0 MISS:          0
cpu0_L1I PREFETCH     ACCESS:          0 HIT:          0 MISS:          0
cpu0_L1I WRITE        ACCESS:          0 HIT:          0 MISS:          0
cpu0_L1I TRANSLATION  ACCESS:          0 HIT:          0 MISS:          0
cpu0_L1I PREFETCH REQUESTED:          0 ISSUED:          0 USEFUL:          0 USELESS:          0
cpu0_L1I AVERAGE MISS LATENCY: -nan cycles
cpu0_L2C TOTAL        ACCESS:     495518 HIT:     278684 MISS:     216834
cpu0_L2C LOAD         ACCESS:      67968 HIT:      31501 MISS:      36467
cpu0_L2C RFO          ACCESS:        365 HIT:        255 MISS:        110
cpu0_L2C PREFETCH     ACCESS:     397037 HIT:     217013 MISS:     180024
cpu0_L2C WRITE        ACCESS:      29773 HIT:      29722 MISS:         51
cpu0_L2C TRANSLATION  ACCESS:        375 HIT:        193 MISS:        182
cpu0_L2C PREFETCH REQUESTED:     147898 ISSUED:     147898 USEFUL:      82023 USELESS:       2999
cpu0_L2C AVERAGE MISS LATENCY: 77.17 cycles
cpu0_STLB TOTAL        ACCESS:       4217 HIT:       3678 MISS:        539
cpu0_STLB LOAD         ACCESS:       4217 HIT:       3678 MISS:        539
cpu0_STLB RFO          ACCESS:          0 HIT:          0 MISS:          0
cpu0_STLB PREFETCH     ACCESS:          0 HIT:          0 MISS:          0
cpu0_STLB WRITE        ACCESS:          0 HIT:          0 MISS:          0
cpu0_STLB TRANSLATION  ACCESS:          0 HIT:          0 MISS:          0
cpu0_STLB PREFETCH REQUESTED:          0 ISSUED:          0 USEFUL:          0 USELESS:          0
cpu0_STLB AVERAGE MISS LATENCY: 274.3 cycles

DRAM Statistics

Channel 0 RQ ROW_BUFFER_HIT:      29863
  ROW_BUFFER_MISS:       1551
 AVG DBUS CONGESTED CYCLE: 3.926
WQ ROW_BUFFER_HIT: Channel 0 
  ROW_BUFFER_MISS:         71
  FULL:        254
