WARNING: physical memory size is smaller than virtual memory size.

*** ChampSim Multicore Out-of-Order Simulator ***
Warmup Instructions: 25000000
Simulation Instructions: 25000000
Number of CPUs: 1
Page size: 4096

Off-chip DRAM Size: 4 GiB Channels: 1 Width: 64-bit Data Race: 800 MT/s
Heartbeat CPU 0 instructions: 10000000 cycles: 2500113 heartbeat IPC: 4 cumulative IPC: 4 (Simulation time: 00 hr 00 min 46 sec)
Heartbeat CPU 0 instructions: 20000000 cycles: 5000113 heartbeat IPC: 4 cumulative IPC: 4 (Simulation time: 00 hr 01 min 33 sec)
Warmup finished CPU 0 instructions: 25000001 cycles: 6257395 cumulative IPC: 3.995 (Simulation time: 00 hr 01 min 53 sec)
Warmup complete CPU 0 instructions: 25000001 cycles: 6257395 cumulative IPC: 3.995 (Simulation time: 00 hr 01 min 53 sec)
Heartbeat CPU 0 instructions: 30000001 cycles: 22939959 heartbeat IPC: 0.5574 cumulative IPC: 0.2997 (Simulation time: 00 hr 04 min 27 sec)
Heartbeat CPU 0 instructions: 40000002 cycles: 28254361 heartbeat IPC: 1.882 cumulative IPC: 0.6819 (Simulation time: 00 hr 05 min 33 sec)
Heartbeat CPU 0 instructions: 50000003 cycles: 55328283 heartbeat IPC: 0.3694 cumulative IPC: 0.5095 (Simulation time: 00 hr 09 min 56 sec)
Simulation finished CPU 0 instructions: 25000002 cycles: 49070889 cumulative IPC: 0.5095 (Simulation time: 00 hr 09 min 56 sec)
Simulation complete CPU 0 instructions: 25000002 cycles: 49070889 cumulative IPC: 0.5095 (Simulation time: 00 hr 09 min 56 sec)

ChampSim completed all CPUs

=== Simulation ===
CPU 0 runs ./traces/GemsFDTD_109B.trace.xz
Region of Interest Statistics

CPU 0 cumulative IPC: 0.5095 instructions: 25000002 cycles: 49070889
CPU 0 Branch Prediction Accuracy: 92.35% MPKI: 9.67 Average ROB Occupancy at Mispredict: 87.99
Branch type MPKI
BRANCH_DIRECT_JUMP: 0.0625
BRANCH_INDIRECT: 0
BRANCH_CONDITIONAL: 5.04
BRANCH_DIRECT_CALL: 0.00192
BRANCH_INDIRECT_CALL: 0
BRANCH_RETURN: 4.56

LLC TOTAL        ACCESS:     906692 HIT:     455604 MISS:     451088
LLC LOAD         ACCESS:     250636 HIT:      10907 MISS:     239729
LLC RFO          ACCESS:      96936 HIT:      82541 MISS:      14395
LLC PREFETCH     ACCESS:     275701 HIT:      89963 MISS:     185738
LLC WRITE        ACCESS:     271873 HIT:     271872 MISS:          1
LLC TRANSLATION  ACCESS:      11546 HIT:        321 MISS:      11225
LLC PREFETCH REQUESTED:          0 ISSUED:          0 USEFUL:          0 USELESS:          0
LLC AVERAGE MISS LATENCY: 1483 cycles
cpu0_DTLB TOTAL        ACCESS:    4826903 HIT:    4583393 MISS:     243510
cpu0_DTLB LOAD         ACCESS:    4826903 HIT:    4583393 MISS:     243510
cpu0_DTLB RFO          ACCESS:          0 HIT:          0 MISS:          0
cpu0_DTLB PREFETCH     ACCESS:          0 HIT:          0 MISS:          0
cpu0_DTLB WRITE        ACCESS:          0 HIT:          0 MISS:          0
cpu0_DTLB TRANSLATION  ACCESS:          0 HIT:          0 MISS:          0
cpu0_DTLB PREFETCH REQUESTED:          0 ISSUED:          0 USEFUL:          0 USELESS:          0
cpu0_DTLB AVERAGE MISS LATENCY: 232.3 cycles
cpu0_ITLB TOTAL        ACCESS:        871 HIT:        854 MISS:         17
cpu0_ITLB LOAD         ACCESS:        871 HIT:        854 MISS:         17
cpu0_ITLB RFO          ACCESS:          0 HIT:          0 MISS:          0
cpu0_ITLB PREFETCH     ACCESS:          0 HIT:          0 MISS:          0
cpu0_ITLB WRITE        ACCESS:          0 HIT:          0 MISS:          0
cpu0_ITLB TRANSLATION  ACCESS:          0 HIT:          0 MISS:          0
cpu0_ITLB PREFETCH REQUESTED:          0 ISSUED:          0 USEFUL:          0 USELESS:          0
cpu0_ITLB AVERAGE MISS LATENCY: 585.3 cycles
cpu0_L1D TOTAL        ACCESS:    9564040 HIT:    7054118 MISS:    2509922
cpu0_L1D LOAD         ACCESS:    3793531 HIT:    2779190 MISS:    1014341
cpu0_L1D RFO          ACCESS:          0 HIT:          0 MISS:          0
cpu0_L1D PREFETCH     ACCESS:    3238402 HIT:    2405060 MISS:     833342
cpu0_L1D WRITE        ACCESS:    2433086 HIT:    1798151 MISS:     634935
cpu0_L1D TRANSLATION  ACCESS:      99021 HIT:      71717 MISS:      27304
cpu0_L1D PREFETCH REQUESTED:   28666613 ISSUED:    3238409 USEFUL:     158235 USELESS:      30454
cpu0_L1D AVERAGE MISS LATENCY: 230.9 cycles
cpu0_L1I TOTAL        ACCESS:       1044 HIT:        605 MISS:        439
cpu0_L1I LOAD         ACCESS:       1044 HIT:        605 MISS:        439
cpu0_L1I RFO          ACCESS:          0 HIT:          0 MISS:          0
cpu0_L1I PREFETCH     ACCESS:          0 HIT:          0 MISS:          0
cpu0_L1I WRITE        ACCESS:          0 HIT:          0 MISS:          0
cpu0_L1I TRANSLATION  ACCESS:          0 HIT:          0 MISS:          0
cpu0_L1I PREFETCH REQUESTED:          0 ISSUED:          0 USEFUL:          0 USELESS:          0
cpu0_L1I AVERAGE MISS LATENCY: 461.8 cycles
cpu0_L2C TOTAL        ACCESS:    1199287 HIT:     442969 MISS:     756318
cpu0_L2C LOAD         ACCESS:     314751 HIT:      50170 MISS:     264581
cpu0_L2C RFO          ACCESS:      96989 HIT:         53 MISS:      96936
cpu0_L2C PREFETCH     ACCESS:     489103 HIT:     105901 MISS:     383202
cpu0_L2C WRITE        ACCESS:     271361 HIT:     271308 MISS:         53
cpu0_L2C TRANSLATION  ACCESS:      27083 HIT:      15537 MISS:      11546
cpu0_L2C PREFETCH REQUESTED:     300390 ISSUED:     300390 USEFUL:      67653 USELESS:      28774
cpu0_L2C AVERAGE MISS LATENCY: 826.4 cycles
cpu0_STLB TOTAL        ACCESS:     121238 HIT:      23081 MISS:      98157
cpu0_STLB LOAD         ACCESS:     121238 HIT:      23081 MISS:      98157
cpu0_STLB RFO          ACCESS:          0 HIT:          0 MISS:          0
cpu0_STLB PREFETCH     ACCESS:          0 HIT:          0 MISS:          0
cpu0_STLB WRITE        ACCESS:          0 HIT:          0 MISS:          0
cpu0_STLB TRANSLATION  ACCESS:          0 HIT:          0 MISS:          0
cpu0_STLB PREFETCH REQUESTED:          0 ISSUED:          0 USEFUL:          0 USELESS:          0
cpu0_STLB AVERAGE MISS LATENCY: 751.6 cycles

DRAM Statistics

Channel 0 RQ ROW_BUFFER_HIT:     131134
  ROW_BUFFER_MISS:     286395
 AVG DBUS CONGESTED CYCLE: 3.934
WQ ROW_BUFFER_HIT: Channel 0 
  ROW_BUFFER_MISS:       4529
  FULL:     201002
