WARNING: physical memory size is smaller than virtual memory size.

*** ChampSim Multicore Out-of-Order Simulator ***
Warmup Instructions: 25000000
Simulation Instructions: 25000000
Number of CPUs: 1
Page size: 4096

Off-chip DRAM Size: 4 GiB Channels: 1 Width: 64-bit Data Race: 800 MT/s
Heartbeat CPU 0 instructions: 10000002 cycles: 2508651 heartbeat IPC: 3.986 cumulative IPC: 3.986 (Simulation time: 00 hr 00 min 39 sec)
Heartbeat CPU 0 instructions: 20000002 cycles: 5008651 heartbeat IPC: 4 cumulative IPC: 3.993 (Simulation time: 00 hr 01 min 30 sec)
Warmup finished CPU 0 instructions: 25000002 cycles: 6258652 cumulative IPC: 3.994 (Simulation time: 00 hr 01 min 55 sec)
Warmup complete CPU 0 instructions: 25000002 cycles: 6258652 cumulative IPC: 3.994 (Simulation time: 00 hr 01 min 55 sec)
Heartbeat CPU 0 instructions: 30000003 cycles: 10088464 heartbeat IPC: 1.969 cumulative IPC: 1.306 (Simulation time: 00 hr 02 min 44 sec)
Heartbeat CPU 0 instructions: 40000000 cycles: 15890287 heartbeat IPC: 1.724 cumulative IPC: 1.557 (Simulation time: 00 hr 04 min 08 sec)
Heartbeat CPU 0 instructions: 50000000 cycles: 42545289 heartbeat IPC: 0.3752 cumulative IPC: 0.689 (Simulation time: 00 hr 08 min 38 sec)
Simulation finished CPU 0 instructions: 25000002 cycles: 36286639 cumulative IPC: 0.689 (Simulation time: 00 hr 08 min 38 sec)
Simulation complete CPU 0 instructions: 25000002 cycles: 36286639 cumulative IPC: 0.689 (Simulation time: 00 hr 08 min 38 sec)

ChampSim completed all CPUs

=== Simulation ===
CPU 0 runs ./traces/GemsFDTD_716B.trace.xz
Region of Interest Statistics

CPU 0 cumulative IPC: 0.689 instructions: 25000002 cycles: 36286639
CPU 0 Branch Prediction Accuracy: 99.45% MPKI: 0.03192 Average ROB Occupancy at Mispredict: 350.4
Branch type MPKI
BRANCH_DIRECT_JUMP: 0
BRANCH_INDIRECT: 0
BRANCH_CONDITIONAL: 0.0319
BRANCH_DIRECT_CALL: 0
BRANCH_INDIRECT_CALL: 0
BRANCH_RETURN: 0

LLC TOTAL        ACCESS:    1710547 HIT:    1179278 MISS:     531269
LLC LOAD         ACCESS:     813586 HIT:     588599 MISS:     224987
LLC RFO          ACCESS:          0 HIT:          0 MISS:          0
LLC PREFETCH     ACCESS:     677759 HIT:     416833 MISS:     260926
LLC WRITE        ACCESS:     161243 HIT:     161179 MISS:         64
LLC TRANSLATION  ACCESS:      57959 HIT:      12667 MISS:      45292
LLC PREFETCH REQUESTED:          0 ISSUED:          0 USEFUL:          0 USELESS:          0
LLC AVERAGE MISS LATENCY: 663 cycles
cpu0_DTLB TOTAL        ACCESS:    6399892 HIT:    5680189 MISS:     719703
cpu0_DTLB LOAD         ACCESS:    6399892 HIT:    5680189 MISS:     719703
cpu0_DTLB RFO          ACCESS:          0 HIT:          0 MISS:          0
cpu0_DTLB PREFETCH     ACCESS:          0 HIT:          0 MISS:          0
cpu0_DTLB WRITE        ACCESS:          0 HIT:          0 MISS:          0
cpu0_DTLB TRANSLATION  ACCESS:          0 HIT:          0 MISS:          0
cpu0_DTLB PREFETCH REQUESTED:          0 ISSUED:          0 USEFUL:          0 USELESS:          0
cpu0_DTLB AVERAGE MISS LATENCY: 56.69 cycles
cpu0_ITLB TOTAL        ACCESS:        142 HIT:        133 MISS:          9
cpu0_ITLB LOAD         ACCESS:        142 HIT:        133 MISS:          9
cpu0_ITLB RFO          ACCESS:          0 HIT:          0 MISS:          0
cpu0_ITLB PREFETCH     ACCESS:          0 HIT:          0 MISS:          0
cpu0_ITLB WRITE        ACCESS:          0 HIT:          0 MISS:          0
cpu0_ITLB TRANSLATION  ACCESS:          0 HIT:          0 MISS:          0
cpu0_ITLB PREFETCH REQUESTED:          0 ISSUED:          0 USEFUL:          0 USELESS:          0
cpu0_ITLB AVERAGE MISS LATENCY: 117.4 cycles
cpu0_L1D TOTAL        ACCESS:   10418140 HIT:    7189594 MISS:    3228546
cpu0_L1D LOAD         ACCESS:    5105213 HIT:    3224913 MISS:    1880300
cpu0_L1D RFO          ACCESS:          0 HIT:          0 MISS:          0
cpu0_L1D PREFETCH     ACCESS:    2335871 HIT:    1105349 MISS:    1230522
cpu0_L1D WRITE        ACCESS:    2883533 HIT:    2854306 MISS:      29227
cpu0_L1D TRANSLATION  ACCESS:      93523 HIT:       5026 MISS:      88497
cpu0_L1D PREFETCH REQUESTED:    8088432 ISSUED:    2335871 USEFUL:     133003 USELESS:     707128
cpu0_L1D AVERAGE MISS LATENCY: 126.7 cycles
cpu0_L1I TOTAL        ACCESS:        177 HIT:         82 MISS:         95
cpu0_L1I LOAD         ACCESS:        177 HIT:         82 MISS:         95
cpu0_L1I RFO          ACCESS:          0 HIT:          0 MISS:          0
cpu0_L1I PREFETCH     ACCESS:          0 HIT:          0 MISS:          0
cpu0_L1I WRITE        ACCESS:          0 HIT:          0 MISS:          0
cpu0_L1I TRANSLATION  ACCESS:          0 HIT:          0 MISS:          0
cpu0_L1I PREFETCH REQUESTED:          0 ISSUED:          0 USEFUL:          0 USELESS:          0
cpu0_L1I AVERAGE MISS LATENCY: 333.8 cycles
cpu0_L2C TOTAL        ACCESS:    3449124 HIT:    1898055 MISS:    1551069
cpu0_L2C LOAD         ACCESS:    1871301 HIT:    1057437 MISS:     813864
cpu0_L2C RFO          ACCESS:      24822 HIT:      24822 MISS:          0
cpu0_L2C PREFETCH     ACCESS:    1156956 HIT:     477750 MISS:     679206
cpu0_L2C WRITE        ACCESS:     308000 HIT:     307960 MISS:         40
cpu0_L2C TRANSLATION  ACCESS:      88045 HIT:      30086 MISS:      57959
cpu0_L2C PREFETCH REQUESTED:     316807 ISSUED:     316804 USEFUL:      42030 USELESS:      64820
cpu0_L2C AVERAGE MISS LATENCY: 246.3 cycles
cpu0_STLB TOTAL        ACCESS:     703017 HIT:     634809 MISS:      68208
cpu0_STLB LOAD         ACCESS:     703017 HIT:     634809 MISS:      68208
cpu0_STLB RFO          ACCESS:          0 HIT:          0 MISS:          0
cpu0_STLB PREFETCH     ACCESS:          0 HIT:          0 MISS:          0
cpu0_STLB WRITE        ACCESS:          0 HIT:          0 MISS:          0
cpu0_STLB TRANSLATION  ACCESS:          0 HIT:          0 MISS:          0
cpu0_STLB PREFETCH REQUESTED:          0 ISSUED:          0 USEFUL:          0 USELESS:          0
cpu0_STLB AVERAGE MISS LATENCY: 547.6 cycles

DRAM Statistics

Channel 0 RQ ROW_BUFFER_HIT:     177836
  ROW_BUFFER_MISS:     353320
 AVG DBUS CONGESTED CYCLE: 3.843
WQ ROW_BUFFER_HIT: Channel 0 
  ROW_BUFFER_MISS:         37
  FULL:        638
