WARNING: physical memory size is smaller than virtual memory size.

*** ChampSim Multicore Out-of-Order Simulator ***
Warmup Instructions: 25000000
Simulation Instructions: 25000000
Number of CPUs: 1
Page size: 4096

Off-chip DRAM Size: 4 GiB Channels: 1 Width: 64-bit Data Race: 800 MT/s
Heartbeat CPU 0 instructions: 10000000 cycles: 2500632 heartbeat IPC: 3.999 cumulative IPC: 3.999 (Simulation time: 00 hr 00 min 45 sec)
Heartbeat CPU 0 instructions: 20000000 cycles: 5000632 heartbeat IPC: 4 cumulative IPC: 3.999 (Simulation time: 00 hr 01 min 31 sec)
Warmup finished CPU 0 instructions: 25000003 cycles: 6251044 cumulative IPC: 3.999 (Simulation time: 00 hr 01 min 55 sec)
Warmup complete CPU 0 instructions: 25000003 cycles: 6251044 cumulative IPC: 3.999 (Simulation time: 00 hr 01 min 55 sec)
Heartbeat CPU 0 instructions: 30000003 cycles: 8969473 heartbeat IPC: 2.52 cumulative IPC: 1.839 (Simulation time: 00 hr 02 min 34 sec)
Heartbeat CPU 0 instructions: 40000002 cycles: 13666308 heartbeat IPC: 2.129 cumulative IPC: 2.023 (Simulation time: 00 hr 03 min 44 sec)
Heartbeat CPU 0 instructions: 50000002 cycles: 19820989 heartbeat IPC: 1.625 cumulative IPC: 1.842 (Simulation time: 00 hr 05 min 07 sec)
Simulation finished CPU 0 instructions: 25000003 cycles: 13569947 cumulative IPC: 1.842 (Simulation time: 00 hr 05 min 07 sec)
Simulation complete CPU 0 instructions: 25000003 cycles: 13569947 cumulative IPC: 1.842 (Simulation time: 00 hr 05 min 07 sec)

ChampSim completed all CPUs

=== Simulation ===
CPU 0 runs ./traces/hmmer_7B.trace.xz
Region of Interest Statistics

CPU 0 cumulative IPC: 1.842 instructions: 25000003 cycles: 13569947
CPU 0 Branch Prediction Accuracy: 99.03% MPKI: 0.3745 Average ROB Occupancy at Mispredict: 208.4
Branch type MPKI
BRANCH_DIRECT_JUMP: 0.00052
BRANCH_INDIRECT: 0.00224
BRANCH_CONDITIONAL: 0.37
BRANCH_DIRECT_CALL: 0.00036
BRANCH_INDIRECT_CALL: 8e-05
BRANCH_RETURN: 0.00108

LLC TOTAL        ACCESS:     153057 HIT:     102049 MISS:      51008
LLC LOAD         ACCESS:       2231 HIT:       1911 MISS:        320
LLC RFO          ACCESS:      71899 HIT:      23184 MISS:      48715
LLC PREFETCH     ACCESS:       7506 HIT:       5548 MISS:       1958
LLC WRITE        ACCESS:      71409 HIT:      71406 MISS:          3
LLC TRANSLATION  ACCESS:         12 HIT:          0 MISS:         12
LLC PREFETCH REQUESTED:          0 ISSUED:          0 USEFUL:          0 USELESS:          0
LLC AVERAGE MISS LATENCY: 2982 cycles
cpu0_DTLB TOTAL        ACCESS:    5610170 HIT:    5603830 MISS:       6340
cpu0_DTLB LOAD         ACCESS:    5610170 HIT:    5603830 MISS:       6340
cpu0_DTLB RFO          ACCESS:          0 HIT:          0 MISS:          0
cpu0_DTLB PREFETCH     ACCESS:          0 HIT:          0 MISS:          0
cpu0_DTLB WRITE        ACCESS:          0 HIT:          0 MISS:          0
cpu0_DTLB TRANSLATION  ACCESS:          0 HIT:          0 MISS:          0
cpu0_DTLB PREFETCH REQUESTED:          0 ISSUED:          0 USEFUL:          0 USELESS:          0
cpu0_DTLB AVERAGE MISS LATENCY: 4.796 cycles
cpu0_ITLB TOTAL        ACCESS:       3191 HIT:       3107 MISS:         84
cpu0_ITLB LOAD         ACCESS:       3191 HIT:       3107 MISS:         84
cpu0_ITLB RFO          ACCESS:          0 HIT:          0 MISS:          0
cpu0_ITLB PREFETCH     ACCESS:          0 HIT:          0 MISS:          0
cpu0_ITLB WRITE        ACCESS:          0 HIT:          0 MISS:          0
cpu0_ITLB TRANSLATION  ACCESS:          0 HIT:          0 MISS:          0
cpu0_ITLB PREFETCH REQUESTED:          0 ISSUED:          0 USEFUL:          0 USELESS:          0
cpu0_ITLB AVERAGE MISS LATENCY: 22.48 cycles
cpu0_L1D TOTAL        ACCESS:    8189513 HIT:    5822991 MISS:    2366522
cpu0_L1D LOAD         ACCESS:    4337580 HIT:    4257486 MISS:      80094
cpu0_L1D RFO          ACCESS:          0 HIT:          0 MISS:          0
cpu0_L1D PREFETCH     ACCESS:     328452 HIT:     296169 MISS:      32283
cpu0_L1D WRITE        ACCESS:    3523462 HIT:    1269336 MISS:    2254126
cpu0_L1D TRANSLATION  ACCESS:         19 HIT:          0 MISS:         19
cpu0_L1D PREFETCH REQUESTED:    5858933 ISSUED:     328446 USEFUL:       6115 USELESS:       2922
cpu0_L1D AVERAGE MISS LATENCY: 52.58 cycles
cpu0_L1I TOTAL        ACCESS:       3568 HIT:       3421 MISS:        147
cpu0_L1I LOAD         ACCESS:       3568 HIT:       3421 MISS:        147
cpu0_L1I RFO          ACCESS:          0 HIT:          0 MISS:          0
cpu0_L1I PREFETCH     ACCESS:          0 HIT:          0 MISS:          0
cpu0_L1I WRITE        ACCESS:          0 HIT:          0 MISS:          0
cpu0_L1I TRANSLATION  ACCESS:          0 HIT:          0 MISS:          0
cpu0_L1I PREFETCH REQUESTED:          0 ISSUED:          0 USEFUL:          0 USELESS:          0
cpu0_L1I AVERAGE MISS LATENCY: 209 cycles
cpu0_L2C TOTAL        ACCESS:     336578 HIT:     254352 MISS:      82226
cpu0_L2C LOAD         ACCESS:      59793 HIT:      57417 MISS:       2376
cpu0_L2C RFO          ACCESS:      75583 HIT:       3684 MISS:      71899
cpu0_L2C PREFETCH     ACCESS:     126143 HIT:     118216 MISS:       7927
cpu0_L2C WRITE        ACCESS:      75040 HIT:      75028 MISS:         12
cpu0_L2C TRANSLATION  ACCESS:         19 HIT:          7 MISS:         12
cpu0_L2C PREFETCH REQUESTED:     117106 ISSUED:     117106 USEFUL:       4093 USELESS:        199
cpu0_L2C AVERAGE MISS LATENCY: 1868 cycles
cpu0_STLB TOTAL        ACCESS:       3582 HIT:       3563 MISS:         19
cpu0_STLB LOAD         ACCESS:       3582 HIT:       3563 MISS:         19
cpu0_STLB RFO          ACCESS:          0 HIT:          0 MISS:          0
cpu0_STLB PREFETCH     ACCESS:          0 HIT:          0 MISS:          0
cpu0_STLB WRITE        ACCESS:          0 HIT:          0 MISS:          0
cpu0_STLB TRANSLATION  ACCESS:          0 HIT:          0 MISS:          0
cpu0_STLB PREFETCH REQUESTED:          0 ISSUED:          0 USEFUL:          0 USELESS:          0
cpu0_STLB AVERAGE MISS LATENCY: 821.5 cycles

DRAM Statistics

Channel 0 RQ ROW_BUFFER_HIT:      23233
  ROW_BUFFER_MISS:      27739
 AVG DBUS CONGESTED CYCLE: 3.953
WQ ROW_BUFFER_HIT: Channel 0 
  ROW_BUFFER_MISS:      10512
  FULL:      39012
