WARNING: physical memory size is smaller than virtual memory size.

*** ChampSim Multicore Out-of-Order Simulator ***
Warmup Instructions: 25000000
Simulation Instructions: 25000000
Number of CPUs: 1
Page size: 4096

Off-chip DRAM Size: 4 GiB Channels: 1 Width: 64-bit Data Race: 800 MT/s
Heartbeat CPU 0 instructions: 10000002 cycles: 2511859 heartbeat IPC: 3.981 cumulative IPC: 3.981 (Simulation time: 00 hr 00 min 42 sec)
Heartbeat CPU 0 instructions: 20000001 cycles: 5023692 heartbeat IPC: 3.981 cumulative IPC: 3.981 (Simulation time: 00 hr 01 min 26 sec)
Warmup finished CPU 0 instructions: 25000000 cycles: 6673546 cumulative IPC: 3.746 (Simulation time: 00 hr 01 min 53 sec)
Warmup complete CPU 0 instructions: 25000000 cycles: 6673546 cumulative IPC: 3.746 (Simulation time: 00 hr 01 min 53 sec)
Heartbeat CPU 0 instructions: 30000003 cycles: 33079460 heartbeat IPC: 0.3564 cumulative IPC: 0.1894 (Simulation time: 00 hr 05 min 37 sec)
Heartbeat CPU 0 instructions: 40000001 cycles: 79204718 heartbeat IPC: 0.2168 cumulative IPC: 0.2068 (Simulation time: 00 hr 12 min 19 sec)
Heartbeat CPU 0 instructions: 50000001 cycles: 125185665 heartbeat IPC: 0.2175 cumulative IPC: 0.2109 (Simulation time: 00 hr 19 min 06 sec)
Simulation finished CPU 0 instructions: 25000001 cycles: 118512120 cumulative IPC: 0.2109 (Simulation time: 00 hr 19 min 06 sec)
Simulation complete CPU 0 instructions: 25000001 cycles: 118512120 cumulative IPC: 0.2109 (Simulation time: 00 hr 19 min 06 sec)

ChampSim completed all CPUs

=== Simulation ===
CPU 0 runs ./traces/lbm_564B.trace.xz
Region of Interest Statistics

CPU 0 cumulative IPC: 0.2109 instructions: 25000001 cycles: 118512120
CPU 0 Branch Prediction Accuracy: 99.23% MPKI: 0.094 Average ROB Occupancy at Mispredict: 252.3
Branch type MPKI
BRANCH_DIRECT_JUMP: 0
BRANCH_INDIRECT: 0
BRANCH_CONDITIONAL: 0.094
BRANCH_DIRECT_CALL: 0
BRANCH_INDIRECT_CALL: 0
BRANCH_RETURN: 0

LLC TOTAL        ACCESS:    1389373 HIT:     625075 MISS:     764298
LLC LOAD         ACCESS:      92603 HIT:       1312 MISS:      91291
LLC RFO          ACCESS:     595167 HIT:      24523 MISS:     570644
LLC PREFETCH     ACCESS:     103365 HIT:       1093 MISS:     102272
LLC WRITE        ACCESS:     597464 HIT:     597443 MISS:         21
LLC TRANSLATION  ACCESS:        774 HIT:        704 MISS:         70
LLC PREFETCH REQUESTED:          0 ISSUED:          0 USEFUL:          0 USELESS:          0
LLC AVERAGE MISS LATENCY: 2182 cycles
cpu0_DTLB TOTAL        ACCESS:    4110979 HIT:    4095063 MISS:      15916
cpu0_DTLB LOAD         ACCESS:    4110979 HIT:    4095063 MISS:      15916
cpu0_DTLB RFO          ACCESS:          0 HIT:          0 MISS:          0
cpu0_DTLB PREFETCH     ACCESS:          0 HIT:          0 MISS:          0
cpu0_DTLB WRITE        ACCESS:          0 HIT:          0 MISS:          0
cpu0_DTLB TRANSLATION  ACCESS:          0 HIT:          0 MISS:          0
cpu0_DTLB PREFETCH REQUESTED:          0 ISSUED:          0 USEFUL:          0 USELESS:          0
cpu0_DTLB AVERAGE MISS LATENCY: 241 cycles
cpu0_ITLB TOTAL        ACCESS:          0 HIT:          0 MISS:          0
cpu0_ITLB LOAD         ACCESS:          0 HIT:          0 MISS:          0
cpu0_ITLB RFO          ACCESS:          0 HIT:          0 MISS:          0
cpu0_ITLB PREFETCH     ACCESS:          0 HIT:          0 MISS:          0
cpu0_ITLB WRITE        ACCESS:          0 HIT:          0 MISS:          0
cpu0_ITLB TRANSLATION  ACCESS:          0 HIT:          0 MISS:          0
cpu0_ITLB PREFETCH REQUESTED:          0 ISSUED:          0 USEFUL:          0 USELESS:          0
cpu0_ITLB AVERAGE MISS LATENCY: -nan cycles
cpu0_L1D TOTAL        ACCESS:    7247359 HIT:    3937023 MISS:    3310336
cpu0_L1D LOAD         ACCESS:    2179835 HIT:    1377424 MISS:     802411
cpu0_L1D RFO          ACCESS:          0 HIT:          0 MISS:          0
cpu0_L1D PREFETCH     ACCESS:    2446885 HIT:    1044781 MISS:    1402104
cpu0_L1D WRITE        ACCESS:    2608692 HIT:    1513849 MISS:    1094843
cpu0_L1D TRANSLATION  ACCESS:      11947 HIT:        969 MISS:      10978
cpu0_L1D PREFETCH REQUESTED:    9838363 ISSUED:    2446888 USEFUL:      75210 USELESS:       1822
cpu0_L1D AVERAGE MISS LATENCY: 424 cycles
cpu0_L1I TOTAL        ACCESS:          0 HIT:          0 MISS:          0
cpu0_L1I LOAD         ACCESS:          0 HIT:          0 MISS:          0
cpu0_L1I RFO          ACCESS:          0 HIT:          0 MISS:          0
cpu0_L1I PREFETCH     ACCESS:          0 HIT:          0 MISS:          0
cpu0_L1I WRITE        ACCESS:          0 HIT:          0 MISS:          0
cpu0_L1I TRANSLATION  ACCESS:          0 HIT:          0 MISS:          0
cpu0_L1I PREFETCH REQUESTED:          0 ISSUED:          0 USEFUL:          0 USELESS:          0
cpu0_L1I AVERAGE MISS LATENCY: -nan cycles
cpu0_L2C TOTAL        ACCESS:    2416945 HIT:    1624344 MISS:     792601
cpu0_L2C LOAD         ACCESS:     115669 HIT:      22995 MISS:      92674
cpu0_L2C RFO          ACCESS:    1075518 HIT:     480344 MISS:     595174
cpu0_L2C PREFETCH     ACCESS:     139221 HIT:      35242 MISS:     103979
cpu0_L2C WRITE        ACCESS:    1075559 HIT:    1075559 MISS:          0
cpu0_L2C TRANSLATION  ACCESS:      10978 HIT:      10204 MISS:        774
cpu0_L2C PREFETCH REQUESTED:      62189 ISSUED:      62189 USEFUL:      24201 USELESS:         41
cpu0_L2C AVERAGE MISS LATENCY: 2118 cycles
cpu0_STLB TOTAL        ACCESS:      11936 HIT:          0 MISS:      11936
cpu0_STLB LOAD         ACCESS:      11936 HIT:          0 MISS:      11936
cpu0_STLB RFO          ACCESS:          0 HIT:          0 MISS:          0
cpu0_STLB PREFETCH     ACCESS:          0 HIT:          0 MISS:          0
cpu0_STLB WRITE        ACCESS:          0 HIT:          0 MISS:          0
cpu0_STLB TRANSLATION  ACCESS:          0 HIT:          0 MISS:          0
cpu0_STLB PREFETCH REQUESTED:          0 ISSUED:          0 USEFUL:          0 USELESS:          0
cpu0_STLB AVERAGE MISS LATENCY: 334.2 cycles

DRAM Statistics

Channel 0 RQ ROW_BUFFER_HIT:      38941
  ROW_BUFFER_MISS:     724401
 AVG DBUS CONGESTED CYCLE: 3.979
WQ ROW_BUFFER_HIT: Channel 0 
  ROW_BUFFER_MISS:      57400
  FULL:     522951
