WARNING: physical memory size is smaller than virtual memory size.

*** ChampSim Multicore Out-of-Order Simulator ***
Warmup Instructions: 25000000
Simulation Instructions: 25000000
Number of CPUs: 1
Page size: 4096

Off-chip DRAM Size: 4 GiB Channels: 1 Width: 64-bit Data Race: 800 MT/s
Heartbeat CPU 0 instructions: 10000000 cycles: 2500074 heartbeat IPC: 4 cumulative IPC: 4 (Simulation time: 00 hr 00 min 35 sec)
Heartbeat CPU 0 instructions: 20000000 cycles: 5000074 heartbeat IPC: 4 cumulative IPC: 4 (Simulation time: 00 hr 01 min 10 sec)
Warmup finished CPU 0 instructions: 25000000 cycles: 6250075 cumulative IPC: 4 (Simulation time: 00 hr 01 min 30 sec)
Warmup complete CPU 0 instructions: 25000000 cycles: 6250075 cumulative IPC: 4 (Simulation time: 00 hr 01 min 30 sec)
Heartbeat CPU 0 instructions: 30000003 cycles: 17715379 heartbeat IPC: 0.7865 cumulative IPC: 0.4361 (Simulation time: 00 hr 03 min 02 sec)
Heartbeat CPU 0 instructions: 40000003 cycles: 39016013 heartbeat IPC: 0.4695 cumulative IPC: 0.4578 (Simulation time: 00 hr 05 min 49 sec)
Heartbeat CPU 0 instructions: 50000001 cycles: 60304632 heartbeat IPC: 0.4697 cumulative IPC: 0.4625 (Simulation time: 00 hr 08 min 35 sec)
Simulation finished CPU 0 instructions: 25000001 cycles: 54054558 cumulative IPC: 0.4625 (Simulation time: 00 hr 08 min 35 sec)
Simulation complete CPU 0 instructions: 25000001 cycles: 54054558 cumulative IPC: 0.4625 (Simulation time: 00 hr 08 min 35 sec)

ChampSim completed all CPUs

=== Simulation ===
CPU 0 runs ./traces/libquantum_1735B.trace.xz
Region of Interest Statistics

CPU 0 cumulative IPC: 0.4625 instructions: 25000001 cycles: 54054558
CPU 0 Branch Prediction Accuracy: 88.5% MPKI: 24.39 Average ROB Occupancy at Mispredict: 3.884
Branch type MPKI
BRANCH_DIRECT_JUMP: 0
BRANCH_INDIRECT: 0
BRANCH_CONDITIONAL: 24.4
BRANCH_DIRECT_CALL: 8e-05
BRANCH_INDIRECT_CALL: 0
BRANCH_RETURN: 8e-05

LLC TOTAL        ACCESS:     959274 HIT:     296495 MISS:     662779
LLC LOAD         ACCESS:        143 HIT:          0 MISS:        143
LLC RFO          ACCESS:          8 HIT:          0 MISS:          8
LLC PREFETCH     ACCESS:     662600 HIT:          0 MISS:     662600
LLC WRITE        ACCESS:     296495 HIT:     296495 MISS:          0
LLC TRANSLATION  ACCESS:         28 HIT:          0 MISS:         28
LLC PREFETCH REQUESTED:          0 ISSUED:          0 USEFUL:          0 USELESS:          0
LLC AVERAGE MISS LATENCY: 543.6 cycles
cpu0_DTLB TOTAL        ACCESS:    3222251 HIT:    3187475 MISS:      34776
cpu0_DTLB LOAD         ACCESS:    3222251 HIT:    3187475 MISS:      34776
cpu0_DTLB RFO          ACCESS:          0 HIT:          0 MISS:          0
cpu0_DTLB PREFETCH     ACCESS:          0 HIT:          0 MISS:          0
cpu0_DTLB WRITE        ACCESS:          0 HIT:          0 MISS:          0
cpu0_DTLB TRANSLATION  ACCESS:          0 HIT:          0 MISS:          0
cpu0_DTLB PREFETCH REQUESTED:          0 ISSUED:          0 USEFUL:          0 USELESS:          0
cpu0_DTLB AVERAGE MISS LATENCY: 3.438 cycles
cpu0_ITLB TOTAL        ACCESS:          2 HIT:          2 MISS:          0
cpu0_ITLB LOAD         ACCESS:          2 HIT:          2 MISS:          0
cpu0_ITLB RFO          ACCESS:          0 HIT:          0 MISS:          0
cpu0_ITLB PREFETCH     ACCESS:          0 HIT:          0 MISS:          0
cpu0_ITLB WRITE        ACCESS:          0 HIT:          0 MISS:          0
cpu0_ITLB TRANSLATION  ACCESS:          0 HIT:          0 MISS:          0
cpu0_ITLB PREFETCH REQUESTED:          0 ISSUED:          0 USEFUL:          0 USELESS:          0
cpu0_ITLB AVERAGE MISS LATENCY: -nan cycles
cpu0_L1D TOTAL        ACCESS:    5882173 HIT:    1982677 MISS:    3899496
cpu0_L1D LOAD         ACCESS:    2649602 HIT:    1068705 MISS:    1580897
cpu0_L1D RFO          ACCESS:          0 HIT:          0 MISS:          0
cpu0_L1D PREFETCH     ACCESS:    2649503 HIT:     330960 MISS:    2318543
cpu0_L1D WRITE        ACCESS:     572706 HIT:     572678 MISS:         28
cpu0_L1D TRANSLATION  ACCESS:      10362 HIT:      10334 MISS:         28
cpu0_L1D PREFETCH REQUESTED:    2649602 ISSUED:    2649502 USEFUL:     659746 USELESS:         32
cpu0_L1D AVERAGE MISS LATENCY: 56.35 cycles
cpu0_L1I TOTAL        ACCESS:          2 HIT:          2 MISS:          0
cpu0_L1I LOAD         ACCESS:          2 HIT:          2 MISS:          0
cpu0_L1I RFO          ACCESS:          0 HIT:          0 MISS:          0
cpu0_L1I PREFETCH     ACCESS:          0 HIT:          0 MISS:          0
cpu0_L1I WRITE        ACCESS:          0 HIT:          0 MISS:          0
cpu0_L1I TRANSLATION  ACCESS:          0 HIT:          0 MISS:          0
cpu0_L1I PREFETCH REQUESTED:          0 ISSUED:          0 USEFUL:          0 USELESS:          0
cpu0_L1I AVERAGE MISS LATENCY: -nan cycles
cpu0_L2C TOTAL        ACCESS:    2866972 HIT:     455597 MISS:    2411375
cpu0_L2C LOAD         ACCESS:       2892 HIT:          6 MISS:       2886
cpu0_L2C RFO          ACCESS:          8 HIT:          0 MISS:          8
cpu0_L2C PREFETCH     ACCESS:    2570212 HIT:     161759 MISS:    2408453
cpu0_L2C WRITE        ACCESS:     293832 HIT:     293832 MISS:          0
cpu0_L2C TRANSLATION  ACCESS:         28 HIT:          0 MISS:         28
cpu0_L2C PREFETCH REQUESTED:    1910433 ISSUED:    1910433 USEFUL:     302536 USELESS:     343586
cpu0_L2C AVERAGE MISS LATENCY: 155.1 cycles
cpu0_STLB TOTAL        ACCESS:      10362 HIT:          0 MISS:      10362
cpu0_STLB LOAD         ACCESS:      10362 HIT:          0 MISS:      10362
cpu0_STLB RFO          ACCESS:          0 HIT:          0 MISS:          0
cpu0_STLB PREFETCH     ACCESS:          0 HIT:          0 MISS:          0
cpu0_STLB WRITE        ACCESS:          0 HIT:          0 MISS:          0
cpu0_STLB TRANSLATION  ACCESS:          0 HIT:          0 MISS:          0
cpu0_STLB PREFETCH REQUESTED:          0 ISSUED:          0 USEFUL:          0 USELESS:          0
cpu0_STLB AVERAGE MISS LATENCY: 7.93 cycles

DRAM Statistics

Channel 0 RQ ROW_BUFFER_HIT:     398796
  ROW_BUFFER_MISS:     263966
 AVG DBUS CONGESTED CYCLE: 3.923
WQ ROW_BUFFER_HIT: Channel 0 
  ROW_BUFFER_MISS:     102109
  FULL:     215636
