WARNING: physical memory size is smaller than virtual memory size.

*** ChampSim Multicore Out-of-Order Simulator ***
Warmup Instructions: 25000000
Simulation Instructions: 25000000
Number of CPUs: 1
Page size: 4096

Off-chip DRAM Size: 4 GiB Channels: 1 Width: 64-bit Data Race: 800 MT/s
Heartbeat CPU 0 instructions: 10000001 cycles: 2500074 heartbeat IPC: 4 cumulative IPC: 4 (Simulation time: 00 hr 00 min 35 sec)
Heartbeat CPU 0 instructions: 20000001 cycles: 5000074 heartbeat IPC: 4 cumulative IPC: 4 (Simulation time: 00 hr 01 min 13 sec)
Warmup finished CPU 0 instructions: 25000001 cycles: 6250075 cumulative IPC: 4 (Simulation time: 00 hr 01 min 32 sec)
Warmup complete CPU 0 instructions: 25000001 cycles: 6250075 cumulative IPC: 4 (Simulation time: 00 hr 01 min 32 sec)
Heartbeat CPU 0 instructions: 30000002 cycles: 31732793 heartbeat IPC: 0.3741 cumulative IPC: 0.1962 (Simulation time: 00 hr 05 min 33 sec)
Heartbeat CPU 0 instructions: 40000000 cycles: 72644550 heartbeat IPC: 0.2444 cumulative IPC: 0.2259 (Simulation time: 00 hr 12 min 04 sec)
Heartbeat CPU 0 instructions: 50000003 cycles: 83758983 heartbeat IPC: 0.8997 cumulative IPC: 0.3225 (Simulation time: 00 hr 14 min 03 sec)
Simulation finished CPU 0 instructions: 25000002 cycles: 77508909 cumulative IPC: 0.3225 (Simulation time: 00 hr 14 min 03 sec)
Simulation complete CPU 0 instructions: 25000002 cycles: 77508909 cumulative IPC: 0.3225 (Simulation time: 00 hr 14 min 03 sec)

ChampSim completed all CPUs

=== Simulation ===
CPU 0 runs ./traces/libquantum_964B.trace.xz
Region of Interest Statistics

CPU 0 cumulative IPC: 0.3225 instructions: 25000002 cycles: 77508909
CPU 0 Branch Prediction Accuracy: 99.98% MPKI: 0.05316 Average ROB Occupancy at Mispredict: 86.12
Branch type MPKI
BRANCH_DIRECT_JUMP: 4e-05
BRANCH_INDIRECT: 0
BRANCH_CONDITIONAL: 0.0527
BRANCH_DIRECT_CALL: 0.0002
BRANCH_INDIRECT_CALL: 0
BRANCH_RETURN: 0.0002

LLC TOTAL        ACCESS:    1806054 HIT:     545992 MISS:    1260062
LLC LOAD         ACCESS:     211539 HIT:      12019 MISS:     199520
LLC RFO          ACCESS:          8 HIT:          0 MISS:          8
LLC PREFETCH     ACCESS:    1068271 HIT:       7774 MISS:    1060497
LLC WRITE        ACCESS:     526199 HIT:     526199 MISS:          0
LLC TRANSLATION  ACCESS:         37 HIT:          0 MISS:         37
LLC PREFETCH REQUESTED:          0 ISSUED:          0 USEFUL:          0 USELESS:          0
LLC AVERAGE MISS LATENCY: 757.8 cycles
cpu0_DTLB TOTAL        ACCESS:    4201437 HIT:    4137321 MISS:      64116
cpu0_DTLB LOAD         ACCESS:    4201437 HIT:    4137321 MISS:      64116
cpu0_DTLB RFO          ACCESS:          0 HIT:          0 MISS:          0
cpu0_DTLB PREFETCH     ACCESS:          0 HIT:          0 MISS:          0
cpu0_DTLB WRITE        ACCESS:          0 HIT:          0 MISS:          0
cpu0_DTLB TRANSLATION  ACCESS:          0 HIT:          0 MISS:          0
cpu0_DTLB PREFETCH REQUESTED:          0 ISSUED:          0 USEFUL:          0 USELESS:          0
cpu0_DTLB AVERAGE MISS LATENCY: 2.955 cycles
cpu0_ITLB TOTAL        ACCESS:          8 HIT:          7 MISS:          1
cpu0_ITLB LOAD         ACCESS:          8 HIT:          7 MISS:          1
cpu0_ITLB RFO          ACCESS:          0 HIT:          0 MISS:          0
cpu0_ITLB PREFETCH     ACCESS:          0 HIT:          0 MISS:          0
cpu0_ITLB WRITE        ACCESS:          0 HIT:          0 MISS:          0
cpu0_ITLB TRANSLATION  ACCESS:          0 HIT:          0 MISS:          0
cpu0_ITLB PREFETCH REQUESTED:          0 ISSUED:          0 USEFUL:          0 USELESS:          0
cpu0_ITLB AVERAGE MISS LATENCY: 637 cycles
cpu0_L1D TOTAL        ACCESS:    8192821 HIT:    2337943 MISS:    5854878
cpu0_L1D LOAD         ACCESS:    3427461 HIT:     122846 MISS:    3304615
cpu0_L1D RFO          ACCESS:          0 HIT:          0 MISS:          0
cpu0_L1D PREFETCH     ACCESS:    2652349 HIT:     102151 MISS:    2550198
cpu0_L1D WRITE        ACCESS:    2098511 HIT:    2098483 MISS:         28
cpu0_L1D TRANSLATION  ACCESS:      14500 HIT:      14463 MISS:         37
cpu0_L1D PREFETCH REQUESTED:   19236937 ISSUED:    2652349 USEFUL:     506249 USELESS:         29
cpu0_L1D AVERAGE MISS LATENCY: 136.1 cycles
cpu0_L1I TOTAL        ACCESS:          8 HIT:          5 MISS:          3
cpu0_L1I LOAD         ACCESS:          8 HIT:          5 MISS:          3
cpu0_L1I RFO          ACCESS:          0 HIT:          0 MISS:          0
cpu0_L1I PREFETCH     ACCESS:          0 HIT:          0 MISS:          0
cpu0_L1I WRITE        ACCESS:          0 HIT:          0 MISS:          0
cpu0_L1I TRANSLATION  ACCESS:          0 HIT:          0 MISS:          0
cpu0_L1I PREFETCH REQUESTED:          0 ISSUED:          0 USEFUL:          0 USELESS:          0
cpu0_L1I AVERAGE MISS LATENCY: 349 cycles
cpu0_L2C TOTAL        ACCESS:    3712631 HIT:     534270 MISS:    3178361
cpu0_L2C LOAD         ACCESS:     421153 HIT:       1992 MISS:     419161
cpu0_L2C RFO          ACCESS:          8 HIT:          0 MISS:          8
cpu0_L2C PREFETCH     ACCESS:    2765762 HIT:       6607 MISS:    2759155
cpu0_L2C WRITE        ACCESS:     525671 HIT:     525671 MISS:          0
cpu0_L2C TRANSLATION  ACCESS:         37 HIT:          0 MISS:         37
cpu0_L2C PREFETCH REQUESTED:    2259485 ISSUED:    2259485 USEFUL:     242699 USELESS:     388238
cpu0_L2C AVERAGE MISS LATENCY: 281.9 cycles
cpu0_STLB TOTAL        ACCESS:      14500 HIT:          0 MISS:      14500
cpu0_STLB LOAD         ACCESS:      14500 HIT:          0 MISS:      14500
cpu0_STLB RFO          ACCESS:          0 HIT:          0 MISS:          0
cpu0_STLB PREFETCH     ACCESS:          0 HIT:          0 MISS:          0
cpu0_STLB WRITE        ACCESS:          0 HIT:          0 MISS:          0
cpu0_STLB TRANSLATION  ACCESS:          0 HIT:          0 MISS:          0
cpu0_STLB PREFETCH REQUESTED:          0 ISSUED:          0 USEFUL:          0 USELESS:          0
cpu0_STLB AVERAGE MISS LATENCY: 13.88 cycles

DRAM Statistics

Channel 0 RQ ROW_BUFFER_HIT:     543336
  ROW_BUFFER_MISS:     384173
 AVG DBUS CONGESTED CYCLE: 3.956
WQ ROW_BUFFER_HIT: Channel 0 
  ROW_BUFFER_MISS:     183257
  FULL:     347000
