WARNING: physical memory size is smaller than virtual memory size.

*** ChampSim Multicore Out-of-Order Simulator ***
Warmup Instructions: 25000000
Simulation Instructions: 25000000
Number of CPUs: 1
Page size: 4096

Off-chip DRAM Size: 4 GiB Channels: 1 Width: 64-bit Data Race: 800 MT/s
Heartbeat CPU 0 instructions: 10000000 cycles: 2522313 heartbeat IPC: 3.965 cumulative IPC: 3.965 (Simulation time: 00 hr 00 min 57 sec)
Heartbeat CPU 0 instructions: 20000003 cycles: 5044563 heartbeat IPC: 3.965 cumulative IPC: 3.965 (Simulation time: 00 hr 01 min 52 sec)
Warmup finished CPU 0 instructions: 25000000 cycles: 6310165 cumulative IPC: 3.962 (Simulation time: 00 hr 02 min 20 sec)
Warmup complete CPU 0 instructions: 25000000 cycles: 6310165 cumulative IPC: 3.962 (Simulation time: 00 hr 02 min 20 sec)
Heartbeat CPU 0 instructions: 30000003 cycles: 69542742 heartbeat IPC: 0.155 cumulative IPC: 0.07907 (Simulation time: 00 hr 08 min 54 sec)
Heartbeat CPU 0 instructions: 40000000 cycles: 211911321 heartbeat IPC: 0.07024 cumulative IPC: 0.07296 (Simulation time: 00 hr 22 min 50 sec)
Heartbeat CPU 0 instructions: 50000000 cycles: 346063399 heartbeat IPC: 0.07454 cumulative IPC: 0.07358 (Simulation time: 00 hr 29 min 23 sec)
Simulation finished CPU 0 instructions: 25000000 cycles: 339753235 cumulative IPC: 0.07358 (Simulation time: 00 hr 29 min 23 sec)
Simulation complete CPU 0 instructions: 25000000 cycles: 339753235 cumulative IPC: 0.07358 (Simulation time: 00 hr 29 min 23 sec)

ChampSim completed all CPUs

=== Simulation ===
CPU 0 runs ./traces/mcf_158B.trace.xz
Region of Interest Statistics

CPU 0 cumulative IPC: 0.07358 instructions: 25000000 cycles: 339753235
CPU 0 Branch Prediction Accuracy: 82.21% MPKI: 49.39 Average ROB Occupancy at Mispredict: 15.11
Branch type MPKI
BRANCH_DIRECT_JUMP: 1.13
BRANCH_INDIRECT: 0
BRANCH_CONDITIONAL: 48.3
BRANCH_DIRECT_CALL: 0
BRANCH_INDIRECT_CALL: 0
BRANCH_RETURN: 0

LLC TOTAL        ACCESS:    5479889 HIT:    2481240 MISS:    2998649
LLC LOAD         ACCESS:    2334386 HIT:    1245654 MISS:    1088732
LLC RFO          ACCESS:      44593 HIT:      14639 MISS:      29954
LLC PREFETCH     ACCESS:    2345763 HIT:     708140 MISS:    1637623
LLC WRITE        ACCESS:     453145 HIT:     453032 MISS:        113
LLC TRANSLATION  ACCESS:     302002 HIT:      59775 MISS:     242227
LLC PREFETCH REQUESTED:          0 ISSUED:          0 USEFUL:          0 USELESS:          0
LLC AVERAGE MISS LATENCY: 564.3 cycles
cpu0_DTLB TOTAL        ACCESS:    7699454 HIT:    4053895 MISS:    3645559
cpu0_DTLB LOAD         ACCESS:    7699454 HIT:    4053895 MISS:    3645559
cpu0_DTLB RFO          ACCESS:          0 HIT:          0 MISS:          0
cpu0_DTLB PREFETCH     ACCESS:          0 HIT:          0 MISS:          0
cpu0_DTLB WRITE        ACCESS:          0 HIT:          0 MISS:          0
cpu0_DTLB TRANSLATION  ACCESS:          0 HIT:          0 MISS:          0
cpu0_DTLB PREFETCH REQUESTED:          0 ISSUED:          0 USEFUL:          0 USELESS:          0
cpu0_DTLB AVERAGE MISS LATENCY: 42.58 cycles
cpu0_ITLB TOTAL        ACCESS:          0 HIT:          0 MISS:          0
cpu0_ITLB LOAD         ACCESS:          0 HIT:          0 MISS:          0
cpu0_ITLB RFO          ACCESS:          0 HIT:          0 MISS:          0
cpu0_ITLB PREFETCH     ACCESS:          0 HIT:          0 MISS:          0
cpu0_ITLB WRITE        ACCESS:          0 HIT:          0 MISS:          0
cpu0_ITLB TRANSLATION  ACCESS:          0 HIT:          0 MISS:          0
cpu0_ITLB PREFETCH REQUESTED:          0 ISSUED:          0 USEFUL:          0 USELESS:          0
cpu0_ITLB AVERAGE MISS LATENCY: -nan cycles
cpu0_L1D TOTAL        ACCESS:   15821729 HIT:    5902059 MISS:    9919670
cpu0_L1D LOAD         ACCESS:    7476199 HIT:    2761437 MISS:    4714762
cpu0_L1D RFO          ACCESS:          0 HIT:          0 MISS:          0
cpu0_L1D PREFETCH     ACCESS:    6780661 HIT:    2036304 MISS:    4744357
cpu0_L1D WRITE        ACCESS:    1159939 HIT:    1075393 MISS:      84546
cpu0_L1D TRANSLATION  ACCESS:     404930 HIT:      28925 MISS:     376005
cpu0_L1D PREFETCH REQUESTED:    9429349 ISSUED:    6780653 USEFUL:     204763 USELESS:    2550060
cpu0_L1D AVERAGE MISS LATENCY: 184.5 cycles
cpu0_L1I TOTAL        ACCESS:          0 HIT:          0 MISS:          0
cpu0_L1I LOAD         ACCESS:          0 HIT:          0 MISS:          0
cpu0_L1I RFO          ACCESS:          0 HIT:          0 MISS:          0
cpu0_L1I PREFETCH     ACCESS:          0 HIT:          0 MISS:          0
cpu0_L1I WRITE        ACCESS:          0 HIT:          0 MISS:          0
cpu0_L1I TRANSLATION  ACCESS:          0 HIT:          0 MISS:          0
cpu0_L1I PREFETCH REQUESTED:          0 ISSUED:          0 USEFUL:          0 USELESS:          0
cpu0_L1I AVERAGE MISS LATENCY: -nan cycles
cpu0_L2C TOTAL        ACCESS:    7018680 HIT:    1991594 MISS:    5027086
cpu0_L2C LOAD         ACCESS:    3230492 HIT:     896024 MISS:    2334468
cpu0_L2C RFO          ACCESS:      64380 HIT:      19787 MISS:      44593
cpu0_L2C PREFETCH     ACCESS:    2766348 HIT:     420362 MISS:    2345986
cpu0_L2C WRITE        ACCESS:     581802 HIT:     581765 MISS:         37
cpu0_L2C TRANSLATION  ACCESS:     375658 HIT:      73656 MISS:     302002
cpu0_L2C PREFETCH REQUESTED:      11315 ISSUED:      11315 USEFUL:       1281 USELESS:       2708
cpu0_L2C AVERAGE MISS LATENCY: 357.2 cycles
cpu0_STLB TOTAL        ACCESS:    2614345 HIT:    2321187 MISS:     293158
cpu0_STLB LOAD         ACCESS:    2614345 HIT:    2321187 MISS:     293158
cpu0_STLB RFO          ACCESS:          0 HIT:          0 MISS:          0
cpu0_STLB PREFETCH     ACCESS:          0 HIT:          0 MISS:          0
cpu0_STLB WRITE        ACCESS:          0 HIT:          0 MISS:          0
cpu0_STLB TRANSLATION  ACCESS:          0 HIT:          0 MISS:          0
cpu0_STLB PREFETCH REQUESTED:          0 ISSUED:          0 USEFUL:          0 USELESS:          0
cpu0_STLB AVERAGE MISS LATENCY: 466.1 cycles

DRAM Statistics

Channel 0 RQ ROW_BUFFER_HIT:     122397
  ROW_BUFFER_MISS:    2875473
 AVG DBUS CONGESTED CYCLE: 3.957
WQ ROW_BUFFER_HIT: Channel 0 
  ROW_BUFFER_MISS:       5172
  FULL:     372525
