WARNING: physical memory size is smaller than virtual memory size.

*** ChampSim Multicore Out-of-Order Simulator ***
Warmup Instructions: 25000000
Simulation Instructions: 25000000
Number of CPUs: 1
Page size: 4096

Off-chip DRAM Size: 4 GiB Channels: 1 Width: 64-bit Data Race: 800 MT/s
Heartbeat CPU 0 instructions: 10000001 cycles: 2500095 heartbeat IPC: 4 cumulative IPC: 4 (Simulation time: 00 hr 00 min 44 sec)
Heartbeat CPU 0 instructions: 20000001 cycles: 5000095 heartbeat IPC: 4 cumulative IPC: 4 (Simulation time: 00 hr 01 min 29 sec)
Warmup finished CPU 0 instructions: 25000001 cycles: 6250096 cumulative IPC: 4 (Simulation time: 00 hr 01 min 51 sec)
Warmup complete CPU 0 instructions: 25000001 cycles: 6250096 cumulative IPC: 4 (Simulation time: 00 hr 01 min 51 sec)
Heartbeat CPU 0 instructions: 30000002 cycles: 15758354 heartbeat IPC: 0.9295 cumulative IPC: 0.5259 (Simulation time: 00 hr 03 min 27 sec)
Heartbeat CPU 0 instructions: 40000002 cycles: 34789279 heartbeat IPC: 0.5255 cumulative IPC: 0.5256 (Simulation time: 00 hr 06 min 44 sec)
Heartbeat CPU 0 instructions: 50000002 cycles: 68555784 heartbeat IPC: 0.2962 cumulative IPC: 0.4012 (Simulation time: 00 hr 12 min 20 sec)
Simulation finished CPU 0 instructions: 25000001 cycles: 62305689 cumulative IPC: 0.4012 (Simulation time: 00 hr 12 min 20 sec)
Simulation complete CPU 0 instructions: 25000001 cycles: 62305689 cumulative IPC: 0.4012 (Simulation time: 00 hr 12 min 20 sec)

ChampSim completed all CPUs

=== Simulation ===
CPU 0 runs ./traces/milc_360B.trace.xz
Region of Interest Statistics

CPU 0 cumulative IPC: 0.4012 instructions: 25000001 cycles: 62305689
CPU 0 Branch Prediction Accuracy: 100% MPKI: 0.00052 Average ROB Occupancy at Mispredict: 107
Branch type MPKI
BRANCH_DIRECT_JUMP: 0
BRANCH_INDIRECT: 0
BRANCH_CONDITIONAL: 0.00036
BRANCH_DIRECT_CALL: 0.00012
BRANCH_INDIRECT_CALL: 0
BRANCH_RETURN: 4e-05

LLC TOTAL        ACCESS:     898500 HIT:     246444 MISS:     652056
LLC LOAD         ACCESS:     215936 HIT:        904 MISS:     215032
LLC RFO          ACCESS:       2962 HIT:          0 MISS:       2962
LLC PREFETCH     ACCESS:     434310 HIT:        406 MISS:     433904
LLC WRITE        ACCESS:     245132 HIT:     245125 MISS:          7
LLC TRANSLATION  ACCESS:        160 HIT:          9 MISS:        151
LLC PREFETCH REQUESTED:          0 ISSUED:          0 USEFUL:          0 USELESS:          0
LLC AVERAGE MISS LATENCY: 1127 cycles
cpu0_DTLB TOTAL        ACCESS:    6036319 HIT:    5816491 MISS:     219828
cpu0_DTLB LOAD         ACCESS:    6036319 HIT:    5816491 MISS:     219828
cpu0_DTLB RFO          ACCESS:          0 HIT:          0 MISS:          0
cpu0_DTLB PREFETCH     ACCESS:          0 HIT:          0 MISS:          0
cpu0_DTLB WRITE        ACCESS:          0 HIT:          0 MISS:          0
cpu0_DTLB TRANSLATION  ACCESS:          0 HIT:          0 MISS:          0
cpu0_DTLB PREFETCH REQUESTED:          0 ISSUED:          0 USEFUL:          0 USELESS:          0
cpu0_DTLB AVERAGE MISS LATENCY: 18.37 cycles
cpu0_ITLB TOTAL        ACCESS:         17 HIT:         15 MISS:          2
cpu0_ITLB LOAD         ACCESS:         17 HIT:         15 MISS:          2
cpu0_ITLB RFO          ACCESS:          0 HIT:          0 MISS:          0
cpu0_ITLB PREFETCH     ACCESS:          0 HIT:          0 MISS:          0
cpu0_ITLB WRITE        ACCESS:          0 HIT:          0 MISS:          0
cpu0_ITLB TRANSLATION  ACCESS:          0 HIT:          0 MISS:          0
cpu0_ITLB PREFETCH REQUESTED:          0 ISSUED:          0 USEFUL:          0 USELESS:          0
cpu0_ITLB AVERAGE MISS LATENCY: 972 cycles
cpu0_L1D TOTAL        ACCESS:   10565825 HIT:    7112094 MISS:    3453731
cpu0_L1D LOAD         ACCESS:    2737830 HIT:    1031300 MISS:    1706530
cpu0_L1D RFO          ACCESS:          0 HIT:          0 MISS:          0
cpu0_L1D PREFETCH     ACCESS:    2409345 HIT:     732793 MISS:    1676552
cpu0_L1D WRITE        ACCESS:    5382117 HIT:    5313087 MISS:      69030
cpu0_L1D TRANSLATION  ACCESS:      36533 HIT:      34914 MISS:       1619
cpu0_L1D PREFETCH REQUESTED:    2749325 ISSUED:    2409353 USEFUL:     275451 USELESS:     126186
cpu0_L1D AVERAGE MISS LATENCY: 167.6 cycles
cpu0_L1I TOTAL        ACCESS:         17 HIT:          3 MISS:         14
cpu0_L1I LOAD         ACCESS:         17 HIT:          3 MISS:         14
cpu0_L1I RFO          ACCESS:          0 HIT:          0 MISS:          0
cpu0_L1I PREFETCH     ACCESS:          0 HIT:          0 MISS:          0
cpu0_L1I WRITE        ACCESS:          0 HIT:          0 MISS:          0
cpu0_L1I TRANSLATION  ACCESS:          0 HIT:          0 MISS:          0
cpu0_L1I PREFETCH REQUESTED:          0 ISSUED:          0 USEFUL:          0 USELESS:          0
cpu0_L1I AVERAGE MISS LATENCY: 300.8 cycles
cpu0_L2C TOTAL        ACCESS:    1035028 HIT:     276143 MISS:     758885
cpu0_L2C LOAD         ACCESS:     246572 HIT:       3777 MISS:     242795
cpu0_L2C RFO          ACCESS:      11963 HIT:       9000 MISS:       2963
cpu0_L2C PREFETCH     ACCESS:     518523 HIT:       5558 MISS:     512965
cpu0_L2C WRITE        ACCESS:     256353 HIT:     256351 MISS:          2
cpu0_L2C TRANSLATION  ACCESS:       1617 HIT:       1457 MISS:        160
cpu0_L2C PREFETCH REQUESTED:     116921 ISSUED:     116921 USEFUL:      39055 USELESS:       2571
cpu0_L2C AVERAGE MISS LATENCY: 956 cycles
cpu0_STLB TOTAL        ACCESS:      36455 HIT:          0 MISS:      36455
cpu0_STLB LOAD         ACCESS:      36455 HIT:          0 MISS:      36455
cpu0_STLB RFO          ACCESS:          0 HIT:          0 MISS:          0
cpu0_STLB PREFETCH     ACCESS:          0 HIT:          0 MISS:          0
cpu0_STLB WRITE        ACCESS:          0 HIT:          0 MISS:          0
cpu0_STLB TRANSLATION  ACCESS:          0 HIT:          0 MISS:          0
cpu0_STLB PREFETCH REQUESTED:          0 ISSUED:          0 USEFUL:          0 USELESS:          0
cpu0_STLB AVERAGE MISS LATENCY: 209.7 cycles

DRAM Statistics

Channel 0 RQ ROW_BUFFER_HIT:     441513
  ROW_BUFFER_MISS:     208317
 AVG DBUS CONGESTED CYCLE: 3.881
WQ ROW_BUFFER_HIT: Channel 0 
  ROW_BUFFER_MISS:     106539
  FULL:     125937
