WARNING: physical memory size is smaller than virtual memory size.

*** ChampSim Multicore Out-of-Order Simulator ***
Warmup Instructions: 25000000
Simulation Instructions: 25000000
Number of CPUs: 1
Page size: 4096

Off-chip DRAM Size: 4 GiB Channels: 1 Width: 64-bit Data Race: 800 MT/s
Heartbeat CPU 0 instructions: 10000000 cycles: 2515148 heartbeat IPC: 3.976 cumulative IPC: 3.976 (Simulation time: 00 hr 00 min 47 sec)
Heartbeat CPU 0 instructions: 20000000 cycles: 5031862 heartbeat IPC: 3.973 cumulative IPC: 3.975 (Simulation time: 00 hr 01 min 35 sec)
Warmup finished CPU 0 instructions: 25000000 cycles: 6289385 cumulative IPC: 3.975 (Simulation time: 00 hr 01 min 59 sec)
Warmup complete CPU 0 instructions: 25000000 cycles: 6289385 cumulative IPC: 3.975 (Simulation time: 00 hr 01 min 59 sec)
Heartbeat CPU 0 instructions: 30000002 cycles: 23553146 heartbeat IPC: 0.5399 cumulative IPC: 0.2896 (Simulation time: 00 hr 04 min 13 sec)
Heartbeat CPU 0 instructions: 40000002 cycles: 58004874 heartbeat IPC: 0.2903 cumulative IPC: 0.29 (Simulation time: 00 hr 08 min 33 sec)
Heartbeat CPU 0 instructions: 50000001 cycles: 88700364 heartbeat IPC: 0.3258 cumulative IPC: 0.3034 (Simulation time: 00 hr 12 min 19 sec)
Simulation finished CPU 0 instructions: 25000001 cycles: 82410980 cumulative IPC: 0.3034 (Simulation time: 00 hr 12 min 19 sec)
Simulation complete CPU 0 instructions: 25000001 cycles: 82410980 cumulative IPC: 0.3034 (Simulation time: 00 hr 12 min 19 sec)

ChampSim completed all CPUs

=== Simulation ===
CPU 0 runs ./traces/omnetpp_340B.trace.xz
Region of Interest Statistics

CPU 0 cumulative IPC: 0.3034 instructions: 25000001 cycles: 82410980
CPU 0 Branch Prediction Accuracy: 92.7% MPKI: 17.4 Average ROB Occupancy at Mispredict: 50.19
Branch type MPKI
BRANCH_DIRECT_JUMP: 0.00016
BRANCH_INDIRECT: 0.0548
BRANCH_CONDITIONAL: 17.3
BRANCH_DIRECT_CALL: 4e-05
BRANCH_INDIRECT_CALL: 0.063
BRANCH_RETURN: 0.0296

LLC TOTAL        ACCESS:    1124707 HIT:     432716 MISS:     691991
LLC LOAD         ACCESS:     376333 HIT:      84464 MISS:     291869
LLC RFO          ACCESS:      56181 HIT:       9809 MISS:      46372
LLC PREFETCH     ACCESS:     374950 HIT:      76195 MISS:     298755
LLC WRITE        ACCESS:     237102 HIT:     236680 MISS:        422
LLC TRANSLATION  ACCESS:      80141 HIT:      25568 MISS:      54573
LLC PREFETCH REQUESTED:          0 ISSUED:          0 USEFUL:          0 USELESS:          0
LLC AVERAGE MISS LATENCY: 437.4 cycles
cpu0_DTLB TOTAL        ACCESS:    7708149 HIT:    7065562 MISS:     642587
cpu0_DTLB LOAD         ACCESS:    7708149 HIT:    7065562 MISS:     642587
cpu0_DTLB RFO          ACCESS:          0 HIT:          0 MISS:          0
cpu0_DTLB PREFETCH     ACCESS:          0 HIT:          0 MISS:          0
cpu0_DTLB WRITE        ACCESS:          0 HIT:          0 MISS:          0
cpu0_DTLB TRANSLATION  ACCESS:          0 HIT:          0 MISS:          0
cpu0_DTLB PREFETCH REQUESTED:          0 ISSUED:          0 USEFUL:          0 USELESS:          0
cpu0_DTLB AVERAGE MISS LATENCY: 47.82 cycles
cpu0_ITLB TOTAL        ACCESS:    1067585 HIT:    1065613 MISS:       1972
cpu0_ITLB LOAD         ACCESS:    1067585 HIT:    1065613 MISS:       1972
cpu0_ITLB RFO          ACCESS:          0 HIT:          0 MISS:          0
cpu0_ITLB PREFETCH     ACCESS:          0 HIT:          0 MISS:          0
cpu0_ITLB WRITE        ACCESS:          0 HIT:          0 MISS:          0
cpu0_ITLB TRANSLATION  ACCESS:          0 HIT:          0 MISS:          0
cpu0_ITLB PREFETCH REQUESTED:          0 ISSUED:          0 USEFUL:          0 USELESS:          0
cpu0_ITLB AVERAGE MISS LATENCY: 33.24 cycles
cpu0_L1D TOTAL        ACCESS:   14028450 HIT:   11842679 MISS:    2185771
cpu0_L1D LOAD         ACCESS:    5091147 HIT:    4241339 MISS:     849808
cpu0_L1D RFO          ACCESS:          0 HIT:          0 MISS:          0
cpu0_L1D PREFETCH     ACCESS:    4562157 HIT:    3650079 MISS:     912078
cpu0_L1D WRITE        ACCESS:    4256508 HIT:    3944831 MISS:     311677
cpu0_L1D TRANSLATION  ACCESS:     118638 HIT:       6430 MISS:     112208
cpu0_L1D PREFETCH REQUESTED:    5425432 ISSUED:    4562150 USEFUL:     131638 USELESS:     342107
cpu0_L1D AVERAGE MISS LATENCY: 141.2 cycles
cpu0_L1I TOTAL        ACCESS:    1148822 HIT:    1146106 MISS:       2716
cpu0_L1I LOAD         ACCESS:    1148822 HIT:    1146106 MISS:       2716
cpu0_L1I RFO          ACCESS:          0 HIT:          0 MISS:          0
cpu0_L1I PREFETCH     ACCESS:          0 HIT:          0 MISS:          0
cpu0_L1I WRITE        ACCESS:          0 HIT:          0 MISS:          0
cpu0_L1I TRANSLATION  ACCESS:          0 HIT:          0 MISS:          0
cpu0_L1I PREFETCH REQUESTED:          0 ISSUED:          0 USEFUL:          0 USELESS:          0
cpu0_L1I AVERAGE MISS LATENCY: 80.79 cycles
cpu0_L2C TOTAL        ACCESS:    1494176 HIT:     603640 MISS:     890536
cpu0_L2C LOAD         ACCESS:     515634 HIT:     138840 MISS:     376794
cpu0_L2C RFO          ACCESS:      71268 HIT:      15087 MISS:      56181
cpu0_L2C PREFETCH     ACCESS:     494789 HIT:     119158 MISS:     375631
cpu0_L2C WRITE        ACCESS:     300601 HIT:     298812 MISS:       1789
cpu0_L2C TRANSLATION  ACCESS:     111884 HIT:      31743 MISS:      80141
cpu0_L2C PREFETCH REQUESTED:      21005 ISSUED:      21005 USEFUL:       3906 USELESS:      12999
cpu0_L2C AVERAGE MISS LATENCY: 359.9 cycles
cpu0_STLB TOTAL        ACCESS:     455667 HIT:     341908 MISS:     113759
cpu0_STLB LOAD         ACCESS:     455667 HIT:     341908 MISS:     113759
cpu0_STLB RFO          ACCESS:          0 HIT:          0 MISS:          0
cpu0_STLB PREFETCH     ACCESS:          0 HIT:          0 MISS:          0
cpu0_STLB WRITE        ACCESS:          0 HIT:          0 MISS:          0
cpu0_STLB TRANSLATION  ACCESS:          0 HIT:          0 MISS:          0
cpu0_STLB PREFETCH REQUESTED:          0 ISSUED:          0 USEFUL:          0 USELESS:          0
cpu0_STLB AVERAGE MISS LATENCY: 250.3 cycles

DRAM Statistics

Channel 0 RQ ROW_BUFFER_HIT:     105257
  ROW_BUFFER_MISS:     585958
 AVG DBUS CONGESTED CYCLE: 3.942
WQ ROW_BUFFER_HIT: Channel 0 
  ROW_BUFFER_MISS:       1368
  FULL:     188960
