WARNING: physical memory size is smaller than virtual memory size.

*** ChampSim Multicore Out-of-Order Simulator ***
Warmup Instructions: 25000000
Simulation Instructions: 25000000
Number of CPUs: 1
Page size: 4096

Off-chip DRAM Size: 4 GiB Channels: 1 Width: 64-bit Data Race: 800 MT/s
Heartbeat CPU 0 instructions: 10000000 cycles: 2549388 heartbeat IPC: 3.923 cumulative IPC: 3.923 (Simulation time: 00 hr 00 min 38 sec)
Heartbeat CPU 0 instructions: 20000003 cycles: 5100987 heartbeat IPC: 3.919 cumulative IPC: 3.921 (Simulation time: 00 hr 01 min 16 sec)
Warmup finished CPU 0 instructions: 25000001 cycles: 6388000 cumulative IPC: 3.914 (Simulation time: 00 hr 01 min 35 sec)
Warmup complete CPU 0 instructions: 25000001 cycles: 6388000 cumulative IPC: 3.914 (Simulation time: 00 hr 01 min 35 sec)
Heartbeat CPU 0 instructions: 30000003 cycles: 10616758 heartbeat IPC: 1.813 cumulative IPC: 1.182 (Simulation time: 00 hr 02 min 23 sec)
Heartbeat CPU 0 instructions: 40000001 cycles: 19388920 heartbeat IPC: 1.14 cumulative IPC: 1.154 (Simulation time: 00 hr 04 min 01 sec)
Heartbeat CPU 0 instructions: 50000002 cycles: 28115037 heartbeat IPC: 1.146 cumulative IPC: 1.151 (Simulation time: 00 hr 05 min 40 sec)
Simulation finished CPU 0 instructions: 25000001 cycles: 21727038 cumulative IPC: 1.151 (Simulation time: 00 hr 05 min 40 sec)
Simulation complete CPU 0 instructions: 25000001 cycles: 21727038 cumulative IPC: 1.151 (Simulation time: 00 hr 05 min 40 sec)

ChampSim completed all CPUs

=== Simulation ===
CPU 0 runs ./traces/sphinx3_2520B.trace.xz
Region of Interest Statistics

CPU 0 cumulative IPC: 1.151 instructions: 25000001 cycles: 21727038
CPU 0 Branch Prediction Accuracy: 96.09% MPKI: 3.369 Average ROB Occupancy at Mispredict: 290.3
Branch type MPKI
BRANCH_DIRECT_JUMP: 0.0225
BRANCH_INDIRECT: 0
BRANCH_CONDITIONAL: 3.32
BRANCH_DIRECT_CALL: 0
BRANCH_INDIRECT_CALL: 0
BRANCH_RETURN: 0.0303

LLC TOTAL        ACCESS:     358071 HIT:      89150 MISS:     268921
LLC LOAD         ACCESS:      41053 HIT:      10150 MISS:      30903
LLC RFO          ACCESS:      30273 HIT:       9977 MISS:      20296
LLC PREFETCH     ACCESS:     252906 HIT:      35281 MISS:     217625
LLC WRITE        ACCESS:      33745 HIT:      33742 MISS:          3
LLC TRANSLATION  ACCESS:         94 HIT:          0 MISS:         94
LLC PREFETCH REQUESTED:          0 ISSUED:          0 USEFUL:          0 USELESS:          0
LLC AVERAGE MISS LATENCY: 444.1 cycles
cpu0_DTLB TOTAL        ACCESS:    4799806 HIT:    4776695 MISS:      23111
cpu0_DTLB LOAD         ACCESS:    4799806 HIT:    4776695 MISS:      23111
cpu0_DTLB RFO          ACCESS:          0 HIT:          0 MISS:          0
cpu0_DTLB PREFETCH     ACCESS:          0 HIT:          0 MISS:          0
cpu0_DTLB WRITE        ACCESS:          0 HIT:          0 MISS:          0
cpu0_DTLB TRANSLATION  ACCESS:          0 HIT:          0 MISS:          0
cpu0_DTLB PREFETCH REQUESTED:          0 ISSUED:          0 USEFUL:          0 USELESS:          0
cpu0_DTLB AVERAGE MISS LATENCY: 6.117 cycles
cpu0_ITLB TOTAL        ACCESS:       2982 HIT:       2974 MISS:          8
cpu0_ITLB LOAD         ACCESS:       2982 HIT:       2974 MISS:          8
cpu0_ITLB RFO          ACCESS:          0 HIT:          0 MISS:          0
cpu0_ITLB PREFETCH     ACCESS:          0 HIT:          0 MISS:          0
cpu0_ITLB WRITE        ACCESS:          0 HIT:          0 MISS:          0
cpu0_ITLB TRANSLATION  ACCESS:          0 HIT:          0 MISS:          0
cpu0_ITLB PREFETCH REQUESTED:          0 ISSUED:          0 USEFUL:          0 USELESS:          0
cpu0_ITLB AVERAGE MISS LATENCY: 24.62 cycles
cpu0_L1D TOTAL        ACCESS:    9960897 HIT:    4665183 MISS:    5295714
cpu0_L1D LOAD         ACCESS:    5419662 HIT:    2733005 MISS:    2686657
cpu0_L1D RFO          ACCESS:          0 HIT:          0 MISS:          0
cpu0_L1D PREFETCH     ACCESS:    4233856 HIT:    1769896 MISS:    2463960
cpu0_L1D WRITE        ACCESS:     307274 HIT:     162273 MISS:     145001
cpu0_L1D TRANSLATION  ACCESS:        105 HIT:          9 MISS:         96
cpu0_L1D PREFETCH REQUESTED:    5466201 ISSUED:    4233859 USEFUL:     260590 USELESS:      10020
cpu0_L1D AVERAGE MISS LATENCY: 10.65 cycles
cpu0_L1I TOTAL        ACCESS:       3373 HIT:       3285 MISS:         88
cpu0_L1I LOAD         ACCESS:       3373 HIT:       3285 MISS:         88
cpu0_L1I RFO          ACCESS:          0 HIT:          0 MISS:          0
cpu0_L1I PREFETCH     ACCESS:          0 HIT:          0 MISS:          0
cpu0_L1I WRITE        ACCESS:          0 HIT:          0 MISS:          0
cpu0_L1I TRANSLATION  ACCESS:          0 HIT:          0 MISS:          0
cpu0_L1I PREFETCH REQUESTED:          0 ISSUED:          0 USEFUL:          0 USELESS:          0
cpu0_L1I AVERAGE MISS LATENCY: 216.4 cycles
cpu0_L2C TOTAL        ACCESS:     461123 HIT:     132444 MISS:     328679
cpu0_L2C LOAD         ACCESS:      51964 HIT:      10762 MISS:      41202
cpu0_L2C RFO          ACCESS:      30761 HIT:        488 MISS:      30273
cpu0_L2C PREFETCH     ACCESS:     345895 HIT:      88884 MISS:     257011
cpu0_L2C WRITE        ACCESS:      32408 HIT:      32309 MISS:         99
cpu0_L2C TRANSLATION  ACCESS:         95 HIT:          1 MISS:         94
cpu0_L2C PREFETCH REQUESTED:      75283 ISSUED:      75283 USEFUL:       8274 USELESS:       3758
cpu0_L2C AVERAGE MISS LATENCY: 383.5 cycles
cpu0_STLB TOTAL        ACCESS:      12560 HIT:      12455 MISS:        105
cpu0_STLB LOAD         ACCESS:      12560 HIT:      12455 MISS:        105
cpu0_STLB RFO          ACCESS:          0 HIT:          0 MISS:          0
cpu0_STLB PREFETCH     ACCESS:          0 HIT:          0 MISS:          0
cpu0_STLB WRITE        ACCESS:          0 HIT:          0 MISS:          0
cpu0_STLB TRANSLATION  ACCESS:          0 HIT:          0 MISS:          0
cpu0_STLB PREFETCH REQUESTED:          0 ISSUED:          0 USEFUL:          0 USELESS:          0
cpu0_STLB AVERAGE MISS LATENCY: 911.5 cycles

DRAM Statistics

Channel 0 RQ ROW_BUFFER_HIT:     179662
  ROW_BUFFER_MISS:      88492
 AVG DBUS CONGESTED CYCLE: 3.899
WQ ROW_BUFFER_HIT: Channel 0 
  ROW_BUFFER_MISS:       4585
  FULL:      16311
