WARNING: physical memory size is smaller than virtual memory size.

*** ChampSim Multicore Out-of-Order Simulator ***
Warmup Instructions: 25000000
Simulation Instructions: 25000000
Number of CPUs: 1
Page size: 4096

Off-chip DRAM Size: 4 GiB Channels: 1 Width: 64-bit Data Race: 800 MT/s
Heartbeat CPU 0 instructions: 10000003 cycles: 2560991 heartbeat IPC: 3.905 cumulative IPC: 3.905 (Simulation time: 00 hr 00 min 45 sec)
Heartbeat CPU 0 instructions: 20000003 cycles: 5060991 heartbeat IPC: 4 cumulative IPC: 3.952 (Simulation time: 00 hr 01 min 27 sec)
Warmup finished CPU 0 instructions: 25000003 cycles: 6311016 cumulative IPC: 3.961 (Simulation time: 00 hr 01 min 47 sec)
Warmup complete CPU 0 instructions: 25000003 cycles: 6311016 cumulative IPC: 3.961 (Simulation time: 00 hr 01 min 47 sec)
Heartbeat CPU 0 instructions: 30000000 cycles: 17342471 heartbeat IPC: 0.8142 cumulative IPC: 0.4532 (Simulation time: 00 hr 03 min 34 sec)
Heartbeat CPU 0 instructions: 40000003 cycles: 41673870 heartbeat IPC: 0.411 cumulative IPC: 0.4242 (Simulation time: 00 hr 07 min 16 sec)
Heartbeat CPU 0 instructions: 50000000 cycles: 49856065 heartbeat IPC: 1.222 cumulative IPC: 0.5741 (Simulation time: 00 hr 08 min 28 sec)
Simulation finished CPU 0 instructions: 25000001 cycles: 43545051 cumulative IPC: 0.5741 (Simulation time: 00 hr 08 min 28 sec)
Simulation complete CPU 0 instructions: 25000001 cycles: 43545051 cumulative IPC: 0.5741 (Simulation time: 00 hr 08 min 28 sec)

ChampSim completed all CPUs

=== Simulation ===
CPU 0 runs ./traces/wrf_1228B.trace.xz
Region of Interest Statistics

CPU 0 cumulative IPC: 0.5741 instructions: 25000001 cycles: 43545051
CPU 0 Branch Prediction Accuracy: 94.36% MPKI: 2.773 Average ROB Occupancy at Mispredict: 294.6
Branch type MPKI
BRANCH_DIRECT_JUMP: 0.00028
BRANCH_INDIRECT: 0
BRANCH_CONDITIONAL: 2.77
BRANCH_DIRECT_CALL: 0.00032
BRANCH_INDIRECT_CALL: 0
BRANCH_RETURN: 0.0004

LLC TOTAL        ACCESS:     708973 HIT:     220004 MISS:     488969
LLC LOAD         ACCESS:      82170 HIT:       1311 MISS:      80859
LLC RFO          ACCESS:     114988 HIT:       5557 MISS:     109431
LLC PREFETCH     ACCESS:     300491 HIT:       2769 MISS:     297722
LLC WRITE        ACCESS:     211048 HIT:     210318 MISS:        730
LLC TRANSLATION  ACCESS:        276 HIT:         49 MISS:        227
LLC PREFETCH REQUESTED:          0 ISSUED:          0 USEFUL:          0 USELESS:          0
LLC AVERAGE MISS LATENCY: 884.5 cycles
cpu0_DTLB TOTAL        ACCESS:    6372830 HIT:    6338826 MISS:      34004
cpu0_DTLB LOAD         ACCESS:    6372830 HIT:    6338826 MISS:      34004
cpu0_DTLB RFO          ACCESS:          0 HIT:          0 MISS:          0
cpu0_DTLB PREFETCH     ACCESS:          0 HIT:          0 MISS:          0
cpu0_DTLB WRITE        ACCESS:          0 HIT:          0 MISS:          0
cpu0_DTLB TRANSLATION  ACCESS:          0 HIT:          0 MISS:          0
cpu0_DTLB PREFETCH REQUESTED:          0 ISSUED:          0 USEFUL:          0 USELESS:          0
cpu0_DTLB AVERAGE MISS LATENCY: 13.51 cycles
cpu0_ITLB TOTAL        ACCESS:       4521 HIT:       4513 MISS:          8
cpu0_ITLB LOAD         ACCESS:       4521 HIT:       4513 MISS:          8
cpu0_ITLB RFO          ACCESS:          0 HIT:          0 MISS:          0
cpu0_ITLB PREFETCH     ACCESS:          0 HIT:          0 MISS:          0
cpu0_ITLB WRITE        ACCESS:          0 HIT:          0 MISS:          0
cpu0_ITLB TRANSLATION  ACCESS:          0 HIT:          0 MISS:          0
cpu0_ITLB PREFETCH REQUESTED:          0 ISSUED:          0 USEFUL:          0 USELESS:          0
cpu0_ITLB AVERAGE MISS LATENCY: 94.5 cycles
cpu0_L1D TOTAL        ACCESS:   11894602 HIT:    7440551 MISS:    4454051
cpu0_L1D LOAD         ACCESS:    6463281 HIT:    4391488 MISS:    2071793
cpu0_L1D RFO          ACCESS:          0 HIT:          0 MISS:          0
cpu0_L1D PREFETCH     ACCESS:    3587503 HIT:    1964108 MISS:    1623395
cpu0_L1D WRITE        ACCESS:    1839450 HIT:    1082520 MISS:     756930
cpu0_L1D TRANSLATION  ACCESS:       4368 HIT:       2435 MISS:       1933
cpu0_L1D PREFETCH REQUESTED:    7632769 ISSUED:    3587493 USEFUL:     409829 USELESS:       9942
cpu0_L1D AVERAGE MISS LATENCY: 74.4 cycles
cpu0_L1I TOTAL        ACCESS:       5061 HIT:       4401 MISS:        660
cpu0_L1I LOAD         ACCESS:       5061 HIT:       4401 MISS:        660
cpu0_L1I RFO          ACCESS:          0 HIT:          0 MISS:          0
cpu0_L1I PREFETCH     ACCESS:          0 HIT:          0 MISS:          0
cpu0_L1I WRITE        ACCESS:          0 HIT:          0 MISS:          0
cpu0_L1I TRANSLATION  ACCESS:          0 HIT:          0 MISS:          0
cpu0_L1I PREFETCH REQUESTED:          0 ISSUED:          0 USEFUL:          0 USELESS:          0
cpu0_L1I AVERAGE MISS LATENCY: 393.5 cycles
cpu0_L2C TOTAL        ACCESS:    1186920 HIT:     611360 MISS:     575560
cpu0_L2C LOAD         ACCESS:     179327 HIT:      80737 MISS:      98590
cpu0_L2C RFO          ACCESS:     161002 HIT:      46014 MISS:     114988
cpu0_L2C PREFETCH     ACCESS:     568226 HIT:     206562 MISS:     361664
cpu0_L2C WRITE        ACCESS:     276433 HIT:     276391 MISS:         42
cpu0_L2C TRANSLATION  ACCESS:       1932 HIT:       1656 MISS:        276
cpu0_L2C PREFETCH REQUESTED:     148453 ISSUED:     148453 USEFUL:      33842 USELESS:      16890
cpu0_L2C AVERAGE MISS LATENCY: 747.1 cycles
cpu0_STLB TOTAL        ACCESS:       8009 HIT:       3647 MISS:       4362
cpu0_STLB LOAD         ACCESS:       8009 HIT:       3647 MISS:       4362
cpu0_STLB RFO          ACCESS:          0 HIT:          0 MISS:          0
cpu0_STLB PREFETCH     ACCESS:          0 HIT:          0 MISS:          0
cpu0_STLB WRITE        ACCESS:          0 HIT:          0 MISS:          0
cpu0_STLB TRANSLATION  ACCESS:          0 HIT:          0 MISS:          0
cpu0_STLB PREFETCH REQUESTED:          0 ISSUED:          0 USEFUL:          0 USELESS:          0
cpu0_STLB AVERAGE MISS LATENCY: 168.1 cycles

DRAM Statistics

Channel 0 RQ ROW_BUFFER_HIT:     121803
  ROW_BUFFER_MISS:     342622
 AVG DBUS CONGESTED CYCLE: 3.945
WQ ROW_BUFFER_HIT: Channel 0 
  ROW_BUFFER_MISS:      24780
  FULL:     178911
