WARNING: physical memory size is smaller than virtual memory size.

*** ChampSim Multicore Out-of-Order Simulator ***
Warmup Instructions: 25000000
Simulation Instructions: 25000000
Number of CPUs: 1
Page size: 4096

Off-chip DRAM Size: 4 GiB Channels: 1 Width: 64-bit Data Race: 800 MT/s
Heartbeat CPU 0 instructions: 10000002 cycles: 2593476 heartbeat IPC: 3.856 cumulative IPC: 3.856 (Simulation time: 00 hr 00 min 41 sec)
Heartbeat CPU 0 instructions: 20000000 cycles: 5184803 heartbeat IPC: 3.859 cumulative IPC: 3.857 (Simulation time: 00 hr 01 min 20 sec)
Warmup finished CPU 0 instructions: 25000001 cycles: 6468436 cumulative IPC: 3.865 (Simulation time: 00 hr 01 min 39 sec)
Warmup complete CPU 0 instructions: 25000001 cycles: 6468436 cumulative IPC: 3.865 (Simulation time: 00 hr 01 min 39 sec)
Heartbeat CPU 0 instructions: 30000001 cycles: 8374363 heartbeat IPC: 3.135 cumulative IPC: 2.623 (Simulation time: 00 hr 02 min 05 sec)
Heartbeat CPU 0 instructions: 40000000 cycles: 12281366 heartbeat IPC: 2.56 cumulative IPC: 2.58 (Simulation time: 00 hr 02 min 53 sec)
Heartbeat CPU 0 instructions: 50000000 cycles: 16212970 heartbeat IPC: 2.543 cumulative IPC: 2.566 (Simulation time: 00 hr 03 min 38 sec)
Simulation finished CPU 0 instructions: 25000003 cycles: 9744536 cumulative IPC: 2.566 (Simulation time: 00 hr 03 min 38 sec)
Simulation complete CPU 0 instructions: 25000003 cycles: 9744536 cumulative IPC: 2.566 (Simulation time: 00 hr 03 min 38 sec)

ChampSim completed all CPUs

=== Simulation ===
CPU 0 runs ./traces/zeusmp_300B.trace.xz
Region of Interest Statistics

CPU 0 cumulative IPC: 2.566 instructions: 25000003 cycles: 9744536
CPU 0 Branch Prediction Accuracy: 98.82% MPKI: 0.461 Average ROB Occupancy at Mispredict: 206.6
Branch type MPKI
BRANCH_DIRECT_JUMP: 0.0227
BRANCH_INDIRECT: 0
BRANCH_CONDITIONAL: 0.438
BRANCH_DIRECT_CALL: 0
BRANCH_INDIRECT_CALL: 0
BRANCH_RETURN: 0

LLC TOTAL        ACCESS:     163033 HIT:      94930 MISS:      68103
LLC LOAD         ACCESS:      25422 HIT:       9806 MISS:      15616
LLC RFO          ACCESS:      38445 HIT:      19999 MISS:      18446
LLC PREFETCH     ACCESS:      58099 HIT:      25112 MISS:      32987
LLC WRITE        ACCESS:      39517 HIT:      39512 MISS:          5
LLC TRANSLATION  ACCESS:       1550 HIT:        501 MISS:       1049
LLC PREFETCH REQUESTED:          0 ISSUED:          0 USEFUL:          0 USELESS:          0
LLC AVERAGE MISS LATENCY: 558 cycles
cpu0_DTLB TOTAL        ACCESS:    4255265 HIT:    3941514 MISS:     313751
cpu0_DTLB LOAD         ACCESS:    4255265 HIT:    3941514 MISS:     313751
cpu0_DTLB RFO          ACCESS:          0 HIT:          0 MISS:          0
cpu0_DTLB PREFETCH     ACCESS:          0 HIT:          0 MISS:          0
cpu0_DTLB WRITE        ACCESS:          0 HIT:          0 MISS:          0
cpu0_DTLB TRANSLATION  ACCESS:          0 HIT:          0 MISS:          0
cpu0_DTLB PREFETCH REQUESTED:          0 ISSUED:          0 USEFUL:          0 USELESS:          0
cpu0_DTLB AVERAGE MISS LATENCY: 9.414 cycles
cpu0_ITLB TOTAL        ACCESS:      82165 HIT:      82165 MISS:          0
cpu0_ITLB LOAD         ACCESS:      82165 HIT:      82165 MISS:          0
cpu0_ITLB RFO          ACCESS:          0 HIT:          0 MISS:          0
cpu0_ITLB PREFETCH     ACCESS:          0 HIT:          0 MISS:          0
cpu0_ITLB WRITE        ACCESS:          0 HIT:          0 MISS:          0
cpu0_ITLB TRANSLATION  ACCESS:          0 HIT:          0 MISS:          0
cpu0_ITLB PREFETCH REQUESTED:          0 ISSUED:          0 USEFUL:          0 USELESS:          0
cpu0_ITLB AVERAGE MISS LATENCY: -nan cycles
cpu0_L1D TOTAL        ACCESS:    6875787 HIT:    5188568 MISS:    1687219
cpu0_L1D LOAD         ACCESS:    3181367 HIT:    2600027 MISS:     581340
cpu0_L1D RFO          ACCESS:          0 HIT:          0 MISS:          0
cpu0_L1D PREFETCH     ACCESS:    1544707 HIT:    1105355 MISS:     439352
cpu0_L1D WRITE        ACCESS:    2147678 HIT:    1483168 MISS:     664510
cpu0_L1D TRANSLATION  ACCESS:       2035 HIT:         18 MISS:       2017
cpu0_L1D PREFETCH REQUESTED:    3579035 ISSUED:    1544706 USEFUL:      70266 USELESS:     223401
cpu0_L1D AVERAGE MISS LATENCY: 27.23 cycles
cpu0_L1I TOTAL        ACCESS:     106288 HIT:     106288 MISS:          0
cpu0_L1I LOAD         ACCESS:     106288 HIT:     106288 MISS:          0
cpu0_L1I RFO          ACCESS:          0 HIT:          0 MISS:          0
cpu0_L1I PREFETCH     ACCESS:          0 HIT:          0 MISS:          0
cpu0_L1I WRITE        ACCESS:          0 HIT:          0 MISS:          0
cpu0_L1I TRANSLATION  ACCESS:          0 HIT:          0 MISS:          0
cpu0_L1I PREFETCH REQUESTED:          0 ISSUED:          0 USEFUL:          0 USELESS:          0
cpu0_L1I AVERAGE MISS LATENCY: -nan cycles
cpu0_L2C TOTAL        ACCESS:    1352779 HIT:    1205505 MISS:     147274
cpu0_L2C LOAD         ACCESS:     462883 HIT:     432999 MISS:      29884
cpu0_L2C RFO          ACCESS:     200482 HIT:     162037 MISS:      38445
cpu0_L2C PREFETCH     ACCESS:     422723 HIT:     345336 MISS:      77387
cpu0_L2C WRITE        ACCESS:     264677 HIT:     264669 MISS:          8
cpu0_L2C TRANSLATION  ACCESS:       2014 HIT:        464 MISS:       1550
cpu0_L2C PREFETCH REQUESTED:     128889 ISSUED:     128889 USEFUL:       5202 USELESS:       5805
cpu0_L2C AVERAGE MISS LATENCY: 274.8 cycles
cpu0_STLB TOTAL        ACCESS:     275584 HIT:     273890 MISS:       1694
cpu0_STLB LOAD         ACCESS:     275584 HIT:     273890 MISS:       1694
cpu0_STLB RFO          ACCESS:          0 HIT:          0 MISS:          0
cpu0_STLB PREFETCH     ACCESS:          0 HIT:          0 MISS:          0
cpu0_STLB WRITE        ACCESS:          0 HIT:          0 MISS:          0
cpu0_STLB TRANSLATION  ACCESS:          0 HIT:          0 MISS:          0
cpu0_STLB PREFETCH REQUESTED:          0 ISSUED:          0 USEFUL:          0 USELESS:          0
cpu0_STLB AVERAGE MISS LATENCY: 525.1 cycles

DRAM Statistics

Channel 0 RQ ROW_BUFFER_HIT:      15152
  ROW_BUFFER_MISS:      52946
 AVG DBUS CONGESTED CYCLE: 3.921
WQ ROW_BUFFER_HIT: Channel 0 
  ROW_BUFFER_MISS:        832
  FULL:      17965
