WARNING: physical memory size is smaller than virtual memory size.

*** ChampSim Multicore Out-of-Order Simulator ***
Warmup Instructions: 25000000
Simulation Instructions: 25000000
Number of CPUs: 1
Page size: 4096

Off-chip DRAM Size: 4 GiB Channels: 1 Width: 64-bit Data Race: 800 MT/s
Heartbeat CPU 0 instructions: 10000003 cycles: 2500096 heartbeat IPC: 4 cumulative IPC: 4 (Simulation time: 00 hr 00 min 53 sec)
Heartbeat CPU 0 instructions: 20000003 cycles: 5000096 heartbeat IPC: 4 cumulative IPC: 4 (Simulation time: 00 hr 01 min 44 sec)
Warmup finished CPU 0 instructions: 25000003 cycles: 6250097 cumulative IPC: 4 (Simulation time: 00 hr 02 min 11 sec)
Warmup complete CPU 0 instructions: 25000003 cycles: 6250097 cumulative IPC: 4 (Simulation time: 00 hr 02 min 11 sec)
Heartbeat CPU 0 instructions: 30000001 cycles: 16385511 heartbeat IPC: 0.8783 cumulative IPC: 0.4933 (Simulation time: 00 hr 03 min 34 sec)
Heartbeat CPU 0 instructions: 40000001 cycles: 36780399 heartbeat IPC: 0.4903 cumulative IPC: 0.4913 (Simulation time: 00 hr 06 min 35 sec)
Heartbeat CPU 0 instructions: 50000000 cycles: 56593408 heartbeat IPC: 0.5047 cumulative IPC: 0.4966 (Simulation time: 00 hr 09 min 39 sec)
Simulation finished CPU 0 instructions: 25000001 cycles: 50343313 cumulative IPC: 0.4966 (Simulation time: 00 hr 09 min 39 sec)
Simulation complete CPU 0 instructions: 25000001 cycles: 50343313 cumulative IPC: 0.4966 (Simulation time: 00 hr 09 min 39 sec)

ChampSim completed all CPUs

=== Simulation ===
CPU 0 runs ./traces/astar_23B.trace.xz
Region of Interest Statistics

CPU 0 cumulative IPC: 0.4966 instructions: 25000001 cycles: 50343313
CPU 0 Branch Prediction Accuracy: 72.89% MPKI: 51.75 Average ROB Occupancy at Mispredict: 4.944
Branch type MPKI
BRANCH_DIRECT_JUMP: 0
BRANCH_INDIRECT: 0
BRANCH_CONDITIONAL: 51.7
BRANCH_DIRECT_CALL: 0
BRANCH_INDIRECT_CALL: 0
BRANCH_RETURN: 0

LLC TOTAL        ACCESS:    1452070 HIT:    1375540 MISS:      76530
LLC LOAD         ACCESS:     587720 HIT:     546248 MISS:      41472
LLC RFO          ACCESS:      10047 HIT:       9921 MISS:        126
LLC PREFETCH     ACCESS:     616001 HIT:     581471 MISS:      34530
LLC WRITE        ACCESS:     227294 HIT:     227207 MISS:         87
LLC TRANSLATION  ACCESS:      11008 HIT:      10693 MISS:        315
LLC PREFETCH REQUESTED:          0 ISSUED:          0 USEFUL:          0 USELESS:          0
LLC AVERAGE MISS LATENCY: 238.9 cycles
cpu0_DTLB TOTAL        ACCESS:    7002854 HIT:    6186199 MISS:     816655
cpu0_DTLB LOAD         ACCESS:    7002854 HIT:    6186199 MISS:     816655
cpu0_DTLB RFO          ACCESS:          0 HIT:          0 MISS:          0
cpu0_DTLB PREFETCH     ACCESS:          0 HIT:          0 MISS:          0
cpu0_DTLB WRITE        ACCESS:          0 HIT:          0 MISS:          0
cpu0_DTLB TRANSLATION  ACCESS:          0 HIT:          0 MISS:          0
cpu0_DTLB PREFETCH REQUESTED:          0 ISSUED:          0 USEFUL:          0 USELESS:          0
cpu0_DTLB AVERAGE MISS LATENCY: 8.226 cycles
cpu0_ITLB TOTAL        ACCESS:          0 HIT:          0 MISS:          0
cpu0_ITLB LOAD         ACCESS:          0 HIT:          0 MISS:          0
cpu0_ITLB RFO          ACCESS:          0 HIT:          0 MISS:          0
cpu0_ITLB PREFETCH     ACCESS:          0 HIT:          0 MISS:          0
cpu0_ITLB WRITE        ACCESS:          0 HIT:          0 MISS:          0
cpu0_ITLB TRANSLATION  ACCESS:          0 HIT:          0 MISS:          0
cpu0_ITLB PREFETCH REQUESTED:          0 ISSUED:          0 USEFUL:          0 USELESS:          0
cpu0_ITLB AVERAGE MISS LATENCY: -nan cycles
cpu0_L1D TOTAL        ACCESS:   14379174 HIT:   12261606 MISS:    2117568
cpu0_L1D LOAD         ACCESS:    6605953 HIT:    5641352 MISS:     964601
cpu0_L1D RFO          ACCESS:          0 HIT:          0 MISS:          0
cpu0_L1D PREFETCH     ACCESS:    6461012 HIT:    5352621 MISS:    1108391
cpu0_L1D WRITE        ACCESS:    1070052 HIT:    1047040 MISS:      23012
cpu0_L1D TRANSLATION  ACCESS:     242157 HIT:     220593 MISS:      21564
cpu0_L1D PREFETCH REQUESTED:    6608523 ISSUED:    6461006 USEFUL:      98889 USELESS:     642741
cpu0_L1D AVERAGE MISS LATENCY: 27.55 cycles
cpu0_L1I TOTAL        ACCESS:          0 HIT:          0 MISS:          0
cpu0_L1I LOAD         ACCESS:          0 HIT:          0 MISS:          0
cpu0_L1I RFO          ACCESS:          0 HIT:          0 MISS:          0
cpu0_L1I PREFETCH     ACCESS:          0 HIT:          0 MISS:          0
cpu0_L1I WRITE        ACCESS:          0 HIT:          0 MISS:          0
cpu0_L1I TRANSLATION  ACCESS:          0 HIT:          0 MISS:          0
cpu0_L1I PREFETCH REQUESTED:          0 ISSUED:          0 USEFUL:          0 USELESS:          0
cpu0_L1I AVERAGE MISS LATENCY: -nan cycles
cpu0_L2C TOTAL        ACCESS:    1733381 HIT:     508553 MISS:    1224828
cpu0_L2C LOAD         ACCESS:     685264 HIT:      97544 MISS:     587720
cpu0_L2C RFO          ACCESS:      20304 HIT:      10257 MISS:      10047
cpu0_L2C PREFETCH     ACCESS:     741625 HIT:     125621 MISS:     616004
cpu0_L2C WRITE        ACCESS:     265199 HIT:     265150 MISS:         49
cpu0_L2C TRANSLATION  ACCESS:      20989 HIT:       9981 MISS:      11008
cpu0_L2C PREFETCH REQUESTED:         24 ISSUED:         24 USEFUL:          5 USELESS:         15
cpu0_L2C AVERAGE MISS LATENCY: 34.99 cycles
cpu0_STLB TOTAL        ACCESS:     622301 HIT:     380145 MISS:     242156
cpu0_STLB LOAD         ACCESS:     622301 HIT:     380145 MISS:     242156
cpu0_STLB RFO          ACCESS:          0 HIT:          0 MISS:          0
cpu0_STLB PREFETCH     ACCESS:          0 HIT:          0 MISS:          0
cpu0_STLB WRITE        ACCESS:          0 HIT:          0 MISS:          0
cpu0_STLB TRANSLATION  ACCESS:          0 HIT:          0 MISS:          0
cpu0_STLB PREFETCH REQUESTED:          0 ISSUED:          0 USEFUL:          0 USELESS:          0
cpu0_STLB AVERAGE MISS LATENCY: 8.702 cycles

DRAM Statistics

Channel 0 RQ ROW_BUFFER_HIT:      12659
  ROW_BUFFER_MISS:      63719
 AVG DBUS CONGESTED CYCLE: 3.968
WQ ROW_BUFFER_HIT: Channel 0 
  ROW_BUFFER_MISS:       4934
  FULL:      30760
