WARNING: physical memory size is smaller than virtual memory size.

*** ChampSim Multicore Out-of-Order Simulator ***
Warmup Instructions: 25000000
Simulation Instructions: 25000000
Number of CPUs: 1
Page size: 4096

Off-chip DRAM Size: 4 GiB Channels: 1 Width: 64-bit Data Race: 800 MT/s
Heartbeat CPU 0 instructions: 10000001 cycles: 2578138 heartbeat IPC: 3.879 cumulative IPC: 3.879 (Simulation time: 00 hr 00 min 54 sec)
Heartbeat CPU 0 instructions: 20000003 cycles: 5156036 heartbeat IPC: 3.879 cumulative IPC: 3.879 (Simulation time: 00 hr 01 min 48 sec)
Warmup finished CPU 0 instructions: 25000000 cycles: 6445034 cumulative IPC: 3.879 (Simulation time: 00 hr 02 min 17 sec)
Warmup complete CPU 0 instructions: 25000000 cycles: 6445034 cumulative IPC: 3.879 (Simulation time: 00 hr 02 min 17 sec)
Heartbeat CPU 0 instructions: 30000000 cycles: 15884644 heartbeat IPC: 0.9321 cumulative IPC: 0.5297 (Simulation time: 00 hr 04 min 11 sec)
Heartbeat CPU 0 instructions: 40000000 cycles: 34505606 heartbeat IPC: 0.537 cumulative IPC: 0.5346 (Simulation time: 00 hr 08 min 17 sec)
Heartbeat CPU 0 instructions: 50000002 cycles: 53196775 heartbeat IPC: 0.535 cumulative IPC: 0.5347 (Simulation time: 00 hr 12 min 24 sec)
Simulation finished CPU 0 instructions: 25000002 cycles: 46751742 cumulative IPC: 0.5347 (Simulation time: 00 hr 12 min 24 sec)
Simulation complete CPU 0 instructions: 25000002 cycles: 46751742 cumulative IPC: 0.5347 (Simulation time: 00 hr 12 min 24 sec)

ChampSim completed all CPUs

=== Simulation ===
CPU 0 runs ./traces/bwaves_1609B.trace.xz
Region of Interest Statistics

CPU 0 cumulative IPC: 0.5347 instructions: 25000002 cycles: 46751742
CPU 0 Branch Prediction Accuracy: 81.22% MPKI: 5.619 Average ROB Occupancy at Mispredict: 261
Branch type MPKI
BRANCH_DIRECT_JUMP: 0
BRANCH_INDIRECT: 0
BRANCH_CONDITIONAL: 5.62
BRANCH_DIRECT_CALL: 0
BRANCH_INDIRECT_CALL: 0
BRANCH_RETURN: 0

LLC TOTAL        ACCESS:     613139 HIT:      37661 MISS:     575478
LLC LOAD         ACCESS:     281688 HIT:      17670 MISS:     264018
LLC RFO          ACCESS:      14594 HIT:          0 MISS:      14594
LLC PREFETCH     ACCESS:     301782 HIT:       5198 MISS:     296584
LLC WRITE        ACCESS:      14779 HIT:      14565 MISS:        214
LLC TRANSLATION  ACCESS:        296 HIT:        228 MISS:         68
LLC PREFETCH REQUESTED:          0 ISSUED:          0 USEFUL:          0 USELESS:          0
LLC AVERAGE MISS LATENCY: 1011 cycles
cpu0_DTLB TOTAL        ACCESS:    8062404 HIT:    8024340 MISS:      38064
cpu0_DTLB LOAD         ACCESS:    8062404 HIT:    8024340 MISS:      38064
cpu0_DTLB RFO          ACCESS:          0 HIT:          0 MISS:          0
cpu0_DTLB PREFETCH     ACCESS:          0 HIT:          0 MISS:          0
cpu0_DTLB WRITE        ACCESS:          0 HIT:          0 MISS:          0
cpu0_DTLB TRANSLATION  ACCESS:          0 HIT:          0 MISS:          0
cpu0_DTLB PREFETCH REQUESTED:          0 ISSUED:          0 USEFUL:          0 USELESS:          0
cpu0_DTLB AVERAGE MISS LATENCY: 41.78 cycles
cpu0_ITLB TOTAL        ACCESS:          0 HIT:          0 MISS:          0
cpu0_ITLB LOAD         ACCESS:          0 HIT:          0 MISS:          0
cpu0_ITLB RFO          ACCESS:          0 HIT:          0 MISS:          0
cpu0_ITLB PREFETCH     ACCESS:          0 HIT:          0 MISS:          0
cpu0_ITLB WRITE        ACCESS:          0 HIT:          0 MISS:          0
cpu0_ITLB TRANSLATION  ACCESS:          0 HIT:          0 MISS:          0
cpu0_ITLB PREFETCH REQUESTED:          0 ISSUED:          0 USEFUL:          0 USELESS:          0
cpu0_ITLB AVERAGE MISS LATENCY: -nan cycles
cpu0_L1D TOTAL        ACCESS:   12185511 HIT:   10616444 MISS:    1569067
cpu0_L1D LOAD         ACCESS:    8977305 HIT:    8050335 MISS:     926970
cpu0_L1D RFO          ACCESS:          0 HIT:          0 MISS:          0
cpu0_L1D PREFETCH     ACCESS:    2496075 HIT:    1914534 MISS:     581541
cpu0_L1D WRITE        ACCESS:     703479 HIT:     651545 MISS:      51934
cpu0_L1D TRANSLATION  ACCESS:       8652 HIT:         30 MISS:       8622
cpu0_L1D PREFETCH REQUESTED:   12630870 ISSUED:    2496075 USEFUL:     221213 USELESS:      10156
cpu0_L1D AVERAGE MISS LATENCY: 206.8 cycles
cpu0_L1I TOTAL        ACCESS:          0 HIT:          0 MISS:          0
cpu0_L1I LOAD         ACCESS:          0 HIT:          0 MISS:          0
cpu0_L1I RFO          ACCESS:          0 HIT:          0 MISS:          0
cpu0_L1I PREFETCH     ACCESS:          0 HIT:          0 MISS:          0
cpu0_L1I WRITE        ACCESS:          0 HIT:          0 MISS:          0
cpu0_L1I TRANSLATION  ACCESS:          0 HIT:          0 MISS:          0
cpu0_L1I PREFETCH REQUESTED:          0 ISSUED:          0 USEFUL:          0 USELESS:          0
cpu0_L1I AVERAGE MISS LATENCY: -nan cycles
cpu0_L2C TOTAL        ACCESS:     867001 HIT:     153458 MISS:     713543
cpu0_L2C LOAD         ACCESS:     375559 HIT:      61519 MISS:     314040
cpu0_L2C RFO          ACCESS:      14704 HIT:        110 MISS:      14594
cpu0_L2C PREFETCH     ACCESS:     452037 HIT:      67610 MISS:     384427
cpu0_L2C WRITE        ACCESS:      16079 HIT:      15893 MISS:        186
cpu0_L2C TRANSLATION  ACCESS:       8622 HIT:       8326 MISS:        296
cpu0_L2C PREFETCH REQUESTED:     220667 ISSUED:     220667 USEFUL:      92522 USELESS:      15219
cpu0_L2C AVERAGE MISS LATENCY: 768.3 cycles
cpu0_STLB TOTAL        ACCESS:      21979 HIT:      13342 MISS:       8637
cpu0_STLB LOAD         ACCESS:      21979 HIT:      13342 MISS:       8637
cpu0_STLB RFO          ACCESS:          0 HIT:          0 MISS:          0
cpu0_STLB PREFETCH     ACCESS:          0 HIT:          0 MISS:          0
cpu0_STLB WRITE        ACCESS:          0 HIT:          0 MISS:          0
cpu0_STLB TRANSLATION  ACCESS:          0 HIT:          0 MISS:          0
cpu0_STLB PREFETCH REQUESTED:          0 ISSUED:          0 USEFUL:          0 USELESS:          0
cpu0_STLB AVERAGE MISS LATENCY: 223.7 cycles

DRAM Statistics

Channel 0 RQ ROW_BUFFER_HIT:     400411
  ROW_BUFFER_MISS:     168823
 AVG DBUS CONGESTED CYCLE: 3.815
WQ ROW_BUFFER_HIT: Channel 0 
  ROW_BUFFER_MISS:       1773
  FULL:      14859
