WARNING: physical memory size is smaller than virtual memory size.

*** ChampSim Multicore Out-of-Order Simulator ***
Warmup Instructions: 25000000
Simulation Instructions: 25000000
Number of CPUs: 1
Page size: 4096

Off-chip DRAM Size: 4 GiB Channels: 1 Width: 64-bit Data Race: 800 MT/s
Heartbeat CPU 0 instructions: 10000002 cycles: 2566642 heartbeat IPC: 3.896 cumulative IPC: 3.896 (Simulation time: 00 hr 00 min 56 sec)
Heartbeat CPU 0 instructions: 20000002 cycles: 5069573 heartbeat IPC: 3.995 cumulative IPC: 3.945 (Simulation time: 00 hr 01 min 54 sec)
Warmup finished CPU 0 instructions: 25000003 cycles: 6383826 cumulative IPC: 3.916 (Simulation time: 00 hr 02 min 23 sec)
Warmup complete CPU 0 instructions: 25000003 cycles: 6383826 cumulative IPC: 3.916 (Simulation time: 00 hr 02 min 23 sec)
Heartbeat CPU 0 instructions: 30000001 cycles: 9191017 heartbeat IPC: 2.426 cumulative IPC: 1.781 (Simulation time: 00 hr 03 min 12 sec)
Heartbeat CPU 0 instructions: 40000003 cycles: 20491490 heartbeat IPC: 0.8849 cumulative IPC: 1.063 (Simulation time: 00 hr 05 min 43 sec)
Heartbeat CPU 0 instructions: 50000002 cycles: 31320730 heartbeat IPC: 0.9234 cumulative IPC: 1.003 (Simulation time: 00 hr 08 min 32 sec)
Simulation finished CPU 0 instructions: 25000003 cycles: 24936906 cumulative IPC: 1.003 (Simulation time: 00 hr 08 min 32 sec)
Simulation complete CPU 0 instructions: 25000003 cycles: 24936906 cumulative IPC: 1.003 (Simulation time: 00 hr 08 min 32 sec)

ChampSim completed all CPUs

=== Simulation ===
CPU 0 runs ./traces/cactusADM_1495B.trace.xz
Region of Interest Statistics

CPU 0 cumulative IPC: 1.003 instructions: 25000003 cycles: 24936906
CPU 0 Branch Prediction Accuracy: 98.22% MPKI: 0.03736 Average ROB Occupancy at Mispredict: 276.4
Branch type MPKI
BRANCH_DIRECT_JUMP: 0
BRANCH_INDIRECT: 0
BRANCH_CONDITIONAL: 0.0374
BRANCH_DIRECT_CALL: 0
BRANCH_INDIRECT_CALL: 0
BRANCH_RETURN: 0

LLC TOTAL        ACCESS:     315610 HIT:      81168 MISS:     234442
LLC LOAD         ACCESS:      36886 HIT:       6190 MISS:      30696
LLC RFO          ACCESS:      67010 HIT:       2488 MISS:      64522
LLC PREFETCH     ACCESS:     133589 HIT:      18054 MISS:     115535
LLC WRITE        ACCESS:      67120 HIT:      54309 MISS:      12811
LLC TRANSLATION  ACCESS:      11005 HIT:        127 MISS:      10878
LLC PREFETCH REQUESTED:          0 ISSUED:          0 USEFUL:          0 USELESS:          0
LLC AVERAGE MISS LATENCY: 1049 cycles
cpu0_DTLB TOTAL        ACCESS:    5770440 HIT:    5224003 MISS:     546437
cpu0_DTLB LOAD         ACCESS:    5770440 HIT:    5224003 MISS:     546437
cpu0_DTLB RFO          ACCESS:          0 HIT:          0 MISS:          0
cpu0_DTLB PREFETCH     ACCESS:          0 HIT:          0 MISS:          0
cpu0_DTLB WRITE        ACCESS:          0 HIT:          0 MISS:          0
cpu0_DTLB TRANSLATION  ACCESS:          0 HIT:          0 MISS:          0
cpu0_DTLB PREFETCH REQUESTED:          0 ISSUED:          0 USEFUL:          0 USELESS:          0
cpu0_DTLB AVERAGE MISS LATENCY: 33.32 cycles
cpu0_ITLB TOTAL        ACCESS:    3538527 HIT:    3538527 MISS:          0
cpu0_ITLB LOAD         ACCESS:    3538527 HIT:    3538527 MISS:          0
cpu0_ITLB RFO          ACCESS:          0 HIT:          0 MISS:          0
cpu0_ITLB PREFETCH     ACCESS:          0 HIT:          0 MISS:          0
cpu0_ITLB WRITE        ACCESS:          0 HIT:          0 MISS:          0
cpu0_ITLB TRANSLATION  ACCESS:          0 HIT:          0 MISS:          0
cpu0_ITLB PREFETCH REQUESTED:          0 ISSUED:          0 USEFUL:          0 USELESS:          0
cpu0_ITLB AVERAGE MISS LATENCY: -nan cycles
cpu0_L1D TOTAL        ACCESS:    9950351 HIT:    9116194 MISS:     834157
cpu0_L1D LOAD         ACCESS:    5824684 HIT:    5597877 MISS:     226807
cpu0_L1D RFO          ACCESS:          0 HIT:          0 MISS:          0
cpu0_L1D PREFETCH     ACCESS:     973340 HIT:     834249 MISS:     139091
cpu0_L1D WRITE        ACCESS:    2915686 HIT:    2574783 MISS:     340903
cpu0_L1D TRANSLATION  ACCESS:     236641 HIT:     109285 MISS:     127356
cpu0_L1D PREFETCH REQUESTED:    6503522 ISSUED:     973340 USEFUL:      96061 USELESS:       4441
cpu0_L1D AVERAGE MISS LATENCY: 195.2 cycles
cpu0_L1I TOTAL        ACCESS:    4641467 HIT:    4641467 MISS:          0
cpu0_L1I LOAD         ACCESS:    4641467 HIT:    4641467 MISS:          0
cpu0_L1I RFO          ACCESS:          0 HIT:          0 MISS:          0
cpu0_L1I PREFETCH     ACCESS:          0 HIT:          0 MISS:          0
cpu0_L1I WRITE        ACCESS:          0 HIT:          0 MISS:          0
cpu0_L1I TRANSLATION  ACCESS:          0 HIT:          0 MISS:          0
cpu0_L1I PREFETCH REQUESTED:          0 ISSUED:          0 USEFUL:          0 USELESS:          0
cpu0_L1I AVERAGE MISS LATENCY: -nan cycles
cpu0_L2C TOTAL        ACCESS:     864774 HIT:     613544 MISS:     251230
cpu0_L2C LOAD         ACCESS:     192312 HIT:     154887 MISS:      37425
cpu0_L2C RFO          ACCESS:      75034 HIT:       8024 MISS:      67010
cpu0_L2C PREFETCH     ACCESS:     392583 HIT:     256887 MISS:     135696
cpu0_L2C WRITE        ACCESS:      77856 HIT:      77762 MISS:         94
cpu0_L2C TRANSLATION  ACCESS:     126989 HIT:     115984 MISS:      11005
cpu0_L2C PREFETCH REQUESTED:     292334 ISSUED:     292092 USEFUL:      69422 USELESS:        334
cpu0_L2C AVERAGE MISS LATENCY: 958.7 cycles
cpu0_STLB TOTAL        ACCESS:     399027 HIT:     270870 MISS:     128157
cpu0_STLB LOAD         ACCESS:     399027 HIT:     270870 MISS:     128157
cpu0_STLB RFO          ACCESS:          0 HIT:          0 MISS:          0
cpu0_STLB PREFETCH     ACCESS:          0 HIT:          0 MISS:          0
cpu0_STLB WRITE        ACCESS:          0 HIT:          0 MISS:          0
cpu0_STLB TRANSLATION  ACCESS:          0 HIT:          0 MISS:          0
cpu0_STLB PREFETCH REQUESTED:          0 ISSUED:          0 USEFUL:          0 USELESS:          0
cpu0_STLB AVERAGE MISS LATENCY: 162.7 cycles

DRAM Statistics

Channel 0 RQ ROW_BUFFER_HIT:      30898
  ROW_BUFFER_MISS:     187198
 AVG DBUS CONGESTED CYCLE: 3.94
WQ ROW_BUFFER_HIT: Channel 0 
  ROW_BUFFER_MISS:       1014
  FULL:      70539
