WARNING: physical memory size is smaller than virtual memory size.

*** ChampSim Multicore Out-of-Order Simulator ***
Warmup Instructions: 25000000
Simulation Instructions: 25000000
Number of CPUs: 1
Page size: 4096

Off-chip DRAM Size: 4 GiB Channels: 1 Width: 64-bit Data Race: 800 MT/s
Heartbeat CPU 0 instructions: 10000003 cycles: 2534757 heartbeat IPC: 3.945 cumulative IPC: 3.945 (Simulation time: 00 hr 00 min 43 sec)
Heartbeat CPU 0 instructions: 20000001 cycles: 5035064 heartbeat IPC: 4 cumulative IPC: 3.972 (Simulation time: 00 hr 01 min 25 sec)
Warmup finished CPU 0 instructions: 25000003 cycles: 6285146 cumulative IPC: 3.978 (Simulation time: 00 hr 01 min 45 sec)
Warmup complete CPU 0 instructions: 25000003 cycles: 6285146 cumulative IPC: 3.978 (Simulation time: 00 hr 01 min 45 sec)
Heartbeat CPU 0 instructions: 30000001 cycles: 7784245 heartbeat IPC: 3.637 cumulative IPC: 3.335 (Simulation time: 00 hr 02 min 11 sec)
Heartbeat CPU 0 instructions: 40000000 cycles: 10899358 heartbeat IPC: 3.21 cumulative IPC: 3.251 (Simulation time: 00 hr 03 min 07 sec)
Heartbeat CPU 0 instructions: 50000003 cycles: 14569092 heartbeat IPC: 2.725 cumulative IPC: 3.018 (Simulation time: 00 hr 04 min 06 sec)
Simulation finished CPU 0 instructions: 25000000 cycles: 8283947 cumulative IPC: 3.018 (Simulation time: 00 hr 04 min 06 sec)
Simulation complete CPU 0 instructions: 25000000 cycles: 8283947 cumulative IPC: 3.018 (Simulation time: 00 hr 04 min 06 sec)

ChampSim completed all CPUs

=== Simulation ===
CPU 0 runs ./traces/calculix_3812B.trace.xz
Region of Interest Statistics

CPU 0 cumulative IPC: 3.018 instructions: 25000000 cycles: 8283947
CPU 0 Branch Prediction Accuracy: 97.86% MPKI: 1.848 Average ROB Occupancy at Mispredict: 132.1
Branch type MPKI
BRANCH_DIRECT_JUMP: 0.0127
BRANCH_INDIRECT: 0.00208
BRANCH_CONDITIONAL: 1.83
BRANCH_DIRECT_CALL: 0.00068
BRANCH_INDIRECT_CALL: 0
BRANCH_RETURN: 0.00076

LLC TOTAL        ACCESS:     239019 HIT:     208470 MISS:      30549
LLC LOAD         ACCESS:      15837 HIT:      13739 MISS:       2098
LLC RFO          ACCESS:      28211 HIT:       7203 MISS:      21008
LLC PREFETCH     ACCESS:      88484 HIT:      81137 MISS:       7347
LLC WRITE        ACCESS:     106410 HIT:     106355 MISS:         55
LLC TRANSLATION  ACCESS:         77 HIT:         36 MISS:         41
LLC PREFETCH REQUESTED:          0 ISSUED:          0 USEFUL:          0 USELESS:          0
LLC AVERAGE MISS LATENCY: 617.1 cycles
cpu0_DTLB TOTAL        ACCESS:    5012243 HIT:    4990842 MISS:      21401
cpu0_DTLB LOAD         ACCESS:    5012243 HIT:    4990842 MISS:      21401
cpu0_DTLB RFO          ACCESS:          0 HIT:          0 MISS:          0
cpu0_DTLB PREFETCH     ACCESS:          0 HIT:          0 MISS:          0
cpu0_DTLB WRITE        ACCESS:          0 HIT:          0 MISS:          0
cpu0_DTLB TRANSLATION  ACCESS:          0 HIT:          0 MISS:          0
cpu0_DTLB PREFETCH REQUESTED:          0 ISSUED:          0 USEFUL:          0 USELESS:          0
cpu0_DTLB AVERAGE MISS LATENCY: 9.087 cycles
cpu0_ITLB TOTAL        ACCESS:      22176 HIT:      22134 MISS:         42
cpu0_ITLB LOAD         ACCESS:      22176 HIT:      22134 MISS:         42
cpu0_ITLB RFO          ACCESS:          0 HIT:          0 MISS:          0
cpu0_ITLB PREFETCH     ACCESS:          0 HIT:          0 MISS:          0
cpu0_ITLB WRITE        ACCESS:          0 HIT:          0 MISS:          0
cpu0_ITLB TRANSLATION  ACCESS:          0 HIT:          0 MISS:          0
cpu0_ITLB PREFETCH REQUESTED:          0 ISSUED:          0 USEFUL:          0 USELESS:          0
cpu0_ITLB AVERAGE MISS LATENCY: 3.095 cycles
cpu0_L1D TOTAL        ACCESS:    8976832 HIT:    7630152 MISS:    1346680
cpu0_L1D LOAD         ACCESS:    4440734 HIT:    3496344 MISS:     944390
cpu0_L1D RFO          ACCESS:          0 HIT:          0 MISS:          0
cpu0_L1D PREFETCH     ACCESS:    2168382 HIT:    1924433 MISS:     243949
cpu0_L1D WRITE        ACCESS:    2367218 HIT:    2209017 MISS:     158201
cpu0_L1D TRANSLATION  ACCESS:        498 HIT:        358 MISS:        140
cpu0_L1D PREFETCH REQUESTED:    4446777 ISSUED:    2168379 USEFUL:     104129 USELESS:      11658
cpu0_L1D AVERAGE MISS LATENCY: 15.69 cycles
cpu0_L1I TOTAL        ACCESS:      24892 HIT:      23456 MISS:       1436
cpu0_L1I LOAD         ACCESS:      24892 HIT:      23456 MISS:       1436
cpu0_L1I RFO          ACCESS:          0 HIT:          0 MISS:          0
cpu0_L1I PREFETCH     ACCESS:          0 HIT:          0 MISS:          0
cpu0_L1I WRITE        ACCESS:          0 HIT:          0 MISS:          0
cpu0_L1I TRANSLATION  ACCESS:          0 HIT:          0 MISS:          0
cpu0_L1I PREFETCH REQUESTED:          0 ISSUED:          0 USEFUL:          0 USELESS:          0
cpu0_L1I AVERAGE MISS LATENCY: 21.35 cycles
cpu0_L2C TOTAL        ACCESS:    1268593 HIT:    1028933 MISS:     239660
cpu0_L2C LOAD         ACCESS:     259316 HIT:     231851 MISS:      27465
cpu0_L2C RFO          ACCESS:      32308 HIT:       4097 MISS:      28211
cpu0_L2C PREFETCH     ACCESS:     706397 HIT:     524261 MISS:     182136
cpu0_L2C WRITE        ACCESS:     270432 HIT:     268661 MISS:       1771
cpu0_L2C TRANSLATION  ACCESS:        140 HIT:         63 MISS:         77
cpu0_L2C PREFETCH REQUESTED:     590941 ISSUED:     590609 USEFUL:      59298 USELESS:       1182
cpu0_L2C AVERAGE MISS LATENCY: 88.98 cycles
cpu0_STLB TOTAL        ACCESS:      12041 HIT:      11545 MISS:        496
cpu0_STLB LOAD         ACCESS:      12041 HIT:      11545 MISS:        496
cpu0_STLB RFO          ACCESS:          0 HIT:          0 MISS:          0
cpu0_STLB PREFETCH     ACCESS:          0 HIT:          0 MISS:          0
cpu0_STLB WRITE        ACCESS:          0 HIT:          0 MISS:          0
cpu0_STLB TRANSLATION  ACCESS:          0 HIT:          0 MISS:          0
cpu0_STLB PREFETCH REQUESTED:          0 ISSUED:          0 USEFUL:          0 USELESS:          0
cpu0_STLB AVERAGE MISS LATENCY: 269.6 cycles

DRAM Statistics

Channel 0 RQ ROW_BUFFER_HIT:      25639
  ROW_BUFFER_MISS:       4626
 AVG DBUS CONGESTED CYCLE: 3.97
WQ ROW_BUFFER_HIT: Channel 0 
  ROW_BUFFER_MISS:        967
  FULL:       4146
