WARNING: physical memory size is smaller than virtual memory size.

*** ChampSim Multicore Out-of-Order Simulator ***
Warmup Instructions: 25000000
Simulation Instructions: 25000000
Number of CPUs: 1
Page size: 4096

Off-chip DRAM Size: 4 GiB Channels: 1 Width: 64-bit Data Race: 800 MT/s
Heartbeat CPU 0 instructions: 10000000 cycles: 2764360 heartbeat IPC: 3.617 cumulative IPC: 3.617 (Simulation time: 00 hr 00 min 59 sec)
Heartbeat CPU 0 instructions: 20000000 cycles: 5345342 heartbeat IPC: 3.874 cumulative IPC: 3.742 (Simulation time: 00 hr 01 min 58 sec)
Warmup finished CPU 0 instructions: 25000003 cycles: 6778522 cumulative IPC: 3.688 (Simulation time: 00 hr 02 min 28 sec)
Warmup complete CPU 0 instructions: 25000003 cycles: 6778522 cumulative IPC: 3.688 (Simulation time: 00 hr 02 min 28 sec)
Heartbeat CPU 0 instructions: 30000003 cycles: 29117586 heartbeat IPC: 0.4207 cumulative IPC: 0.2238 (Simulation time: 00 hr 05 min 41 sec)
Heartbeat CPU 0 instructions: 40000002 cycles: 65287140 heartbeat IPC: 0.2765 cumulative IPC: 0.2564 (Simulation time: 00 hr 11 min 39 sec)
Heartbeat CPU 0 instructions: 50000000 cycles: 78209342 heartbeat IPC: 0.7739 cumulative IPC: 0.35 (Simulation time: 00 hr 13 min 49 sec)
Simulation finished CPU 0 instructions: 25000000 cycles: 71430833 cumulative IPC: 0.35 (Simulation time: 00 hr 13 min 49 sec)
Simulation complete CPU 0 instructions: 25000000 cycles: 71430833 cumulative IPC: 0.35 (Simulation time: 00 hr 13 min 49 sec)

ChampSim completed all CPUs

=== Simulation ===
CPU 0 runs ./traces/gcc_13B.trace.xz
Region of Interest Statistics

CPU 0 cumulative IPC: 0.35 instructions: 25000000 cycles: 71430833
CPU 0 Branch Prediction Accuracy: 87.06% MPKI: 28.41 Average ROB Occupancy at Mispredict: 24.57
Branch type MPKI
BRANCH_DIRECT_JUMP: 0.00096
BRANCH_INDIRECT: 0
BRANCH_CONDITIONAL: 27.4
BRANCH_DIRECT_CALL: 0.00084
BRANCH_INDIRECT_CALL: 0.002
BRANCH_RETURN: 1

LLC TOTAL        ACCESS:     912157 HIT:     230067 MISS:     682090
LLC LOAD         ACCESS:     276385 HIT:      27728 MISS:     248657
LLC RFO          ACCESS:      76816 HIT:       5160 MISS:      71656
LLC PREFETCH     ACCESS:     346240 HIT:      18256 MISS:     327984
LLC WRITE        ACCESS:     205374 HIT:     176508 MISS:      28866
LLC TRANSLATION  ACCESS:       7342 HIT:       2415 MISS:       4927
LLC PREFETCH REQUESTED:          0 ISSUED:          0 USEFUL:          0 USELESS:          0
LLC AVERAGE MISS LATENCY: 817.2 cycles
cpu0_DTLB TOTAL        ACCESS:    6725175 HIT:    6646059 MISS:      79116
cpu0_DTLB LOAD         ACCESS:    6725175 HIT:    6646059 MISS:      79116
cpu0_DTLB RFO          ACCESS:          0 HIT:          0 MISS:          0
cpu0_DTLB PREFETCH     ACCESS:          0 HIT:          0 MISS:          0
cpu0_DTLB WRITE        ACCESS:          0 HIT:          0 MISS:          0
cpu0_DTLB TRANSLATION  ACCESS:          0 HIT:          0 MISS:          0
cpu0_DTLB PREFETCH REQUESTED:          0 ISSUED:          0 USEFUL:          0 USELESS:          0
cpu0_DTLB AVERAGE MISS LATENCY: 105.5 cycles
cpu0_ITLB TOTAL        ACCESS:        427 HIT:        412 MISS:         15
cpu0_ITLB LOAD         ACCESS:        427 HIT:        412 MISS:         15
cpu0_ITLB RFO          ACCESS:          0 HIT:          0 MISS:          0
cpu0_ITLB PREFETCH     ACCESS:          0 HIT:          0 MISS:          0
cpu0_ITLB WRITE        ACCESS:          0 HIT:          0 MISS:          0
cpu0_ITLB TRANSLATION  ACCESS:          0 HIT:          0 MISS:          0
cpu0_ITLB PREFETCH REQUESTED:          0 ISSUED:          0 USEFUL:          0 USELESS:          0
cpu0_ITLB AVERAGE MISS LATENCY: 521.3 cycles
cpu0_L1D TOTAL        ACCESS:   13055780 HIT:   10634168 MISS:    2421612
cpu0_L1D LOAD         ACCESS:    5260796 HIT:    4067332 MISS:    1193464
cpu0_L1D RFO          ACCESS:          0 HIT:          0 MISS:          0
cpu0_L1D PREFETCH     ACCESS:    4183271 HIT:    3444805 MISS:     738466
cpu0_L1D WRITE        ACCESS:    3589807 HIT:    3115302 MISS:     474505
cpu0_L1D TRANSLATION  ACCESS:      21906 HIT:       6729 MISS:      15177
cpu0_L1D PREFETCH REQUESTED:   13883523 ISSUED:    4183270 USEFUL:     116020 USELESS:     122429
cpu0_L1D AVERAGE MISS LATENCY: 177.2 cycles
cpu0_L1I TOTAL        ACCESS:        494 HIT:        424 MISS:         70
cpu0_L1I LOAD         ACCESS:        494 HIT:        424 MISS:         70
cpu0_L1I RFO          ACCESS:          0 HIT:          0 MISS:          0
cpu0_L1I PREFETCH     ACCESS:          0 HIT:          0 MISS:          0
cpu0_L1I WRITE        ACCESS:          0 HIT:          0 MISS:          0
cpu0_L1I TRANSLATION  ACCESS:          0 HIT:          0 MISS:          0
cpu0_L1I PREFETCH REQUESTED:          0 ISSUED:          0 USEFUL:          0 USELESS:          0
cpu0_L1I AVERAGE MISS LATENCY: 271.3 cycles
cpu0_L2C TOTAL        ACCESS:    1091842 HIT:     295794 MISS:     796048
cpu0_L2C LOAD         ACCESS:     338771 HIT:      39524 MISS:     299247
cpu0_L2C RFO          ACCESS:      82345 HIT:       3975 MISS:      78370
cpu0_L2C PREFETCH     ACCESS:     449052 HIT:      37988 MISS:     411064
cpu0_L2C WRITE        ACCESS:     206523 HIT:     206498 MISS:         25
cpu0_L2C TRANSLATION  ACCESS:      15151 HIT:       7809 MISS:       7342
cpu0_L2C PREFETCH REQUESTED:     210595 ISSUED:     210595 USEFUL:      66954 USELESS:      27078
cpu0_L2C AVERAGE MISS LATENCY: 643.5 cycles
cpu0_STLB TOTAL        ACCESS:      30392 HIT:       8593 MISS:      21799
cpu0_STLB LOAD         ACCESS:      30392 HIT:       8593 MISS:      21799
cpu0_STLB RFO          ACCESS:          0 HIT:          0 MISS:          0
cpu0_STLB PREFETCH     ACCESS:          0 HIT:          0 MISS:          0
cpu0_STLB WRITE        ACCESS:          0 HIT:          0 MISS:          0
cpu0_STLB TRANSLATION  ACCESS:          0 HIT:          0 MISS:          0
cpu0_STLB PREFETCH REQUESTED:          0 ISSUED:          0 USEFUL:          0 USELESS:          0
cpu0_STLB AVERAGE MISS LATENCY: 500.5 cycles

DRAM Statistics

Channel 0 RQ ROW_BUFFER_HIT:     236282
  ROW_BUFFER_MISS:     395109
 AVG DBUS CONGESTED CYCLE: 3.909
WQ ROW_BUFFER_HIT: Channel 0 
  ROW_BUFFER_MISS:       9673
  FULL:     210129
