WARNING: physical memory size is smaller than virtual memory size.

*** ChampSim Multicore Out-of-Order Simulator ***
Warmup Instructions: 25000000
Simulation Instructions: 25000000
Number of CPUs: 1
Page size: 4096

Off-chip DRAM Size: 4 GiB Channels: 1 Width: 64-bit Data Race: 800 MT/s
Heartbeat CPU 0 instructions: 10000000 cycles: 2500113 heartbeat IPC: 4 cumulative IPC: 4 (Simulation time: 00 hr 00 min 57 sec)
Heartbeat CPU 0 instructions: 20000000 cycles: 5000113 heartbeat IPC: 4 cumulative IPC: 4 (Simulation time: 00 hr 01 min 52 sec)
Warmup finished CPU 0 instructions: 25000001 cycles: 6257430 cumulative IPC: 3.995 (Simulation time: 00 hr 02 min 18 sec)
Warmup complete CPU 0 instructions: 25000001 cycles: 6257430 cumulative IPC: 3.995 (Simulation time: 00 hr 02 min 18 sec)
Heartbeat CPU 0 instructions: 30000001 cycles: 22202289 heartbeat IPC: 0.5813 cumulative IPC: 0.3136 (Simulation time: 00 hr 05 min 17 sec)
Heartbeat CPU 0 instructions: 40000002 cycles: 27553961 heartbeat IPC: 1.869 cumulative IPC: 0.7043 (Simulation time: 00 hr 06 min 38 sec)
Heartbeat CPU 0 instructions: 50000003 cycles: 55149198 heartbeat IPC: 0.3624 cumulative IPC: 0.5113 (Simulation time: 00 hr 12 min 23 sec)
Simulation finished CPU 0 instructions: 25000002 cycles: 48891769 cumulative IPC: 0.5113 (Simulation time: 00 hr 12 min 23 sec)
Simulation complete CPU 0 instructions: 25000002 cycles: 48891769 cumulative IPC: 0.5113 (Simulation time: 00 hr 12 min 23 sec)

ChampSim completed all CPUs

=== Simulation ===
CPU 0 runs ./traces/GemsFDTD_109B.trace.xz
Region of Interest Statistics

CPU 0 cumulative IPC: 0.5113 instructions: 25000002 cycles: 48891769
CPU 0 Branch Prediction Accuracy: 92.35% MPKI: 9.67 Average ROB Occupancy at Mispredict: 88.1
Branch type MPKI
BRANCH_DIRECT_JUMP: 0.0625
BRANCH_INDIRECT: 0
BRANCH_CONDITIONAL: 5.04
BRANCH_DIRECT_CALL: 0.00192
BRANCH_INDIRECT_CALL: 0
BRANCH_RETURN: 4.56

LLC TOTAL        ACCESS:     905138 HIT:     430412 MISS:     474726
LLC LOAD         ACCESS:     250027 HIT:       9194 MISS:     240833
LLC RFO          ACCESS:      96936 HIT:      83827 MISS:      13109
LLC PREFETCH     ACCESS:     274715 HIT:      89389 MISS:     185326
LLC WRITE        ACCESS:     271879 HIT:     247718 MISS:      24161
LLC TRANSLATION  ACCESS:      11581 HIT:        284 MISS:      11297
LLC PREFETCH REQUESTED:          0 ISSUED:          0 USEFUL:          0 USELESS:          0
LLC AVERAGE MISS LATENCY: 1403 cycles
cpu0_DTLB TOTAL        ACCESS:    4812865 HIT:    4569836 MISS:     243029
cpu0_DTLB LOAD         ACCESS:    4812865 HIT:    4569836 MISS:     243029
cpu0_DTLB RFO          ACCESS:          0 HIT:          0 MISS:          0
cpu0_DTLB PREFETCH     ACCESS:          0 HIT:          0 MISS:          0
cpu0_DTLB WRITE        ACCESS:          0 HIT:          0 MISS:          0
cpu0_DTLB TRANSLATION  ACCESS:          0 HIT:          0 MISS:          0
cpu0_DTLB PREFETCH REQUESTED:          0 ISSUED:          0 USEFUL:          0 USELESS:          0
cpu0_DTLB AVERAGE MISS LATENCY: 229.8 cycles
cpu0_ITLB TOTAL        ACCESS:        872 HIT:        855 MISS:         17
cpu0_ITLB LOAD         ACCESS:        872 HIT:        855 MISS:         17
cpu0_ITLB RFO          ACCESS:          0 HIT:          0 MISS:          0
cpu0_ITLB PREFETCH     ACCESS:          0 HIT:          0 MISS:          0
cpu0_ITLB WRITE        ACCESS:          0 HIT:          0 MISS:          0
cpu0_ITLB TRANSLATION  ACCESS:          0 HIT:          0 MISS:          0
cpu0_ITLB PREFETCH REQUESTED:          0 ISSUED:          0 USEFUL:          0 USELESS:          0
cpu0_ITLB AVERAGE MISS LATENCY: 612.5 cycles
cpu0_L1D TOTAL        ACCESS:    9556204 HIT:    7036800 MISS:    2519404
cpu0_L1D LOAD         ACCESS:    3782072 HIT:    2769852 MISS:    1012220
cpu0_L1D RFO          ACCESS:          0 HIT:          0 MISS:          0
cpu0_L1D PREFETCH     ACCESS:    3242055 HIT:    2402585 MISS:     839470
cpu0_L1D WRITE        ACCESS:    2433065 HIT:    1792707 MISS:     640358
cpu0_L1D TRANSLATION  ACCESS:      99012 HIT:      71656 MISS:      27356
cpu0_L1D PREFETCH REQUESTED:   28372314 ISSUED:    3242062 USEFUL:     157650 USELESS:      28969
cpu0_L1D AVERAGE MISS LATENCY: 227.8 cycles
cpu0_L1I TOTAL        ACCESS:       1046 HIT:        603 MISS:        443
cpu0_L1I LOAD         ACCESS:       1046 HIT:        603 MISS:        443
cpu0_L1I RFO          ACCESS:          0 HIT:          0 MISS:          0
cpu0_L1I PREFETCH     ACCESS:          0 HIT:          0 MISS:          0
cpu0_L1I WRITE        ACCESS:          0 HIT:          0 MISS:          0
cpu0_L1I TRANSLATION  ACCESS:          0 HIT:          0 MISS:          0
cpu0_L1I PREFETCH REQUESTED:          0 ISSUED:          0 USEFUL:          0 USELESS:          0
cpu0_L1I AVERAGE MISS LATENCY: 455.2 cycles
cpu0_L2C TOTAL        ACCESS:    1191072 HIT:     443325 MISS:     747747
cpu0_L2C LOAD         ACCESS:     315345 HIT:      51331 MISS:     264014
cpu0_L2C RFO          ACCESS:      96988 HIT:         52 MISS:      96936
cpu0_L2C PREFETCH     ACCESS:     480196 HIT:     105033 MISS:     375163
cpu0_L2C WRITE        ACCESS:     271363 HIT:     271310 MISS:         53
cpu0_L2C TRANSLATION  ACCESS:      27180 HIT:      15599 MISS:      11581
cpu0_L2C PREFETCH REQUESTED:     293551 ISSUED:     293551 USEFUL:      67019 USELESS:      27057
cpu0_L2C AVERAGE MISS LATENCY: 835.3 cycles
cpu0_STLB TOTAL        ACCESS:     121227 HIT:      23070 MISS:      98157
cpu0_STLB LOAD         ACCESS:     121227 HIT:      23070 MISS:      98157
cpu0_STLB RFO          ACCESS:          0 HIT:          0 MISS:          0
cpu0_STLB PREFETCH     ACCESS:          0 HIT:          0 MISS:          0
cpu0_STLB WRITE        ACCESS:          0 HIT:          0 MISS:          0
cpu0_STLB TRANSLATION  ACCESS:          0 HIT:          0 MISS:          0
cpu0_STLB PREFETCH REQUESTED:          0 ISSUED:          0 USEFUL:          0 USELESS:          0
cpu0_STLB AVERAGE MISS LATENCY: 743.5 cycles

DRAM Statistics

Channel 0 RQ ROW_BUFFER_HIT:     131397
  ROW_BUFFER_MISS:     286154
 AVG DBUS CONGESTED CYCLE: 3.934
WQ ROW_BUFFER_HIT: Channel 0 
  ROW_BUFFER_MISS:       5292
  FULL:     197170
