WARNING: physical memory size is smaller than virtual memory size.

*** ChampSim Multicore Out-of-Order Simulator ***
Warmup Instructions: 25000000
Simulation Instructions: 25000000
Number of CPUs: 1
Page size: 4096

Off-chip DRAM Size: 4 GiB Channels: 1 Width: 64-bit Data Race: 800 MT/s
Heartbeat CPU 0 instructions: 10000003 cycles: 2508637 heartbeat IPC: 3.986 cumulative IPC: 3.986 (Simulation time: 00 hr 00 min 44 sec)
Heartbeat CPU 0 instructions: 20000003 cycles: 5008637 heartbeat IPC: 4 cumulative IPC: 3.993 (Simulation time: 00 hr 01 min 51 sec)
Warmup finished CPU 0 instructions: 25000003 cycles: 6258638 cumulative IPC: 3.994 (Simulation time: 00 hr 02 min 22 sec)
Warmup complete CPU 0 instructions: 25000003 cycles: 6258638 cumulative IPC: 3.994 (Simulation time: 00 hr 02 min 22 sec)
Heartbeat CPU 0 instructions: 30000001 cycles: 10662267 heartbeat IPC: 1.769 cumulative IPC: 1.135 (Simulation time: 00 hr 03 min 32 sec)
Heartbeat CPU 0 instructions: 40000000 cycles: 16972147 heartbeat IPC: 1.585 cumulative IPC: 1.4 (Simulation time: 00 hr 05 min 24 sec)
Heartbeat CPU 0 instructions: 50000000 cycles: 45899349 heartbeat IPC: 0.3457 cumulative IPC: 0.6307 (Simulation time: 00 hr 11 min 55 sec)
Simulation finished CPU 0 instructions: 25000001 cycles: 39640713 cumulative IPC: 0.6307 (Simulation time: 00 hr 11 min 55 sec)
Simulation complete CPU 0 instructions: 25000001 cycles: 39640713 cumulative IPC: 0.6307 (Simulation time: 00 hr 11 min 55 sec)

ChampSim completed all CPUs

=== Simulation ===
CPU 0 runs ./traces/GemsFDTD_716B.trace.xz
Region of Interest Statistics

CPU 0 cumulative IPC: 0.6307 instructions: 25000001 cycles: 39640713
CPU 0 Branch Prediction Accuracy: 99.45% MPKI: 0.03192 Average ROB Occupancy at Mispredict: 350.2
Branch type MPKI
BRANCH_DIRECT_JUMP: 0
BRANCH_INDIRECT: 0
BRANCH_CONDITIONAL: 0.0319
BRANCH_DIRECT_CALL: 0
BRANCH_INDIRECT_CALL: 0
BRANCH_RETURN: 0

LLC TOTAL        ACCESS:    1733515 HIT:    1157949 MISS:     575566
LLC LOAD         ACCESS:     830253 HIT:     592732 MISS:     237521
LLC RFO          ACCESS:          0 HIT:          0 MISS:          0
LLC PREFETCH     ACCESS:     686526 HIT:     398539 MISS:     287987
LLC WRITE        ACCESS:     156546 HIT:     152695 MISS:       3851
LLC TRANSLATION  ACCESS:      60190 HIT:      13983 MISS:      46207
LLC PREFETCH REQUESTED:          0 ISSUED:          0 USEFUL:          0 USELESS:          0
LLC AVERAGE MISS LATENCY: 694.8 cycles
cpu0_DTLB TOTAL        ACCESS:    6400092 HIT:    5679720 MISS:     720372
cpu0_DTLB LOAD         ACCESS:    6400092 HIT:    5679720 MISS:     720372
cpu0_DTLB RFO          ACCESS:          0 HIT:          0 MISS:          0
cpu0_DTLB PREFETCH     ACCESS:          0 HIT:          0 MISS:          0
cpu0_DTLB WRITE        ACCESS:          0 HIT:          0 MISS:          0
cpu0_DTLB TRANSLATION  ACCESS:          0 HIT:          0 MISS:          0
cpu0_DTLB PREFETCH REQUESTED:          0 ISSUED:          0 USEFUL:          0 USELESS:          0
cpu0_DTLB AVERAGE MISS LATENCY: 60.9 cycles
cpu0_ITLB TOTAL        ACCESS:        141 HIT:        133 MISS:          8
cpu0_ITLB LOAD         ACCESS:        141 HIT:        133 MISS:          8
cpu0_ITLB RFO          ACCESS:          0 HIT:          0 MISS:          0
cpu0_ITLB PREFETCH     ACCESS:          0 HIT:          0 MISS:          0
cpu0_ITLB WRITE        ACCESS:          0 HIT:          0 MISS:          0
cpu0_ITLB TRANSLATION  ACCESS:          0 HIT:          0 MISS:          0
cpu0_ITLB PREFETCH REQUESTED:          0 ISSUED:          0 USEFUL:          0 USELESS:          0
cpu0_ITLB AVERAGE MISS LATENCY: 137.8 cycles
cpu0_L1D TOTAL        ACCESS:   10448901 HIT:    7188664 MISS:    3260237
cpu0_L1D LOAD         ACCESS:    5095040 HIT:    3212676 MISS:    1882364
cpu0_L1D RFO          ACCESS:          0 HIT:          0 MISS:          0
cpu0_L1D PREFETCH     ACCESS:    2377997 HIT:    1118316 MISS:    1259681
cpu0_L1D WRITE        ACCESS:    2882205 HIT:    2852690 MISS:      29515
cpu0_L1D TRANSLATION  ACCESS:      93659 HIT:       4982 MISS:      88677
cpu0_L1D PREFETCH REQUESTED:    8884241 ISSUED:    2377997 USEFUL:     131409 USELESS:     720621
cpu0_L1D AVERAGE MISS LATENCY: 139.5 cycles
cpu0_L1I TOTAL        ACCESS:        177 HIT:         82 MISS:         95
cpu0_L1I LOAD         ACCESS:        177 HIT:         82 MISS:         95
cpu0_L1I RFO          ACCESS:          0 HIT:          0 MISS:          0
cpu0_L1I PREFETCH     ACCESS:          0 HIT:          0 MISS:          0
cpu0_L1I WRITE        ACCESS:          0 HIT:          0 MISS:          0
cpu0_L1I TRANSLATION  ACCESS:          0 HIT:          0 MISS:          0
cpu0_L1I PREFETCH REQUESTED:          0 ISSUED:          0 USEFUL:          0 USELESS:          0
cpu0_L1I AVERAGE MISS LATENCY: 344.1 cycles
cpu0_L2C TOTAL        ACCESS:    3461314 HIT:    1882485 MISS:    1578829
cpu0_L2C LOAD         ACCESS:    1872879 HIT:    1042350 MISS:     830529
cpu0_L2C RFO          ACCESS:      25185 HIT:      25185 MISS:          0
cpu0_L2C PREFETCH     ACCESS:    1166738 HIT:     478659 MISS:     688079
cpu0_L2C WRITE        ACCESS:     308308 HIT:     308277 MISS:         31
cpu0_L2C TRANSLATION  ACCESS:      88204 HIT:      28014 MISS:      60190
cpu0_L2C PREFETCH REQUESTED:     314712 ISSUED:     314697 USEFUL:      42397 USELESS:      65550
cpu0_L2C AVERAGE MISS LATENCY: 272.2 cycles
cpu0_STLB TOTAL        ACCESS:     703104 HIT:     634962 MISS:      68142
cpu0_STLB LOAD         ACCESS:     703104 HIT:     634962 MISS:      68142
cpu0_STLB RFO          ACCESS:          0 HIT:          0 MISS:          0
cpu0_STLB PREFETCH     ACCESS:          0 HIT:          0 MISS:          0
cpu0_STLB WRITE        ACCESS:          0 HIT:          0 MISS:          0
cpu0_STLB TRANSLATION  ACCESS:          0 HIT:          0 MISS:          0
cpu0_STLB PREFETCH REQUESTED:          0 ISSUED:          0 USEFUL:          0 USELESS:          0
cpu0_STLB AVERAGE MISS LATENCY: 598.8 cycles

DRAM Statistics

Channel 0 RQ ROW_BUFFER_HIT:     178478
  ROW_BUFFER_MISS:     391501
 AVG DBUS CONGESTED CYCLE: 3.852
WQ ROW_BUFFER_HIT: Channel 0 
  ROW_BUFFER_MISS:        192
  FULL:       5337
