WARNING: physical memory size is smaller than virtual memory size.

*** ChampSim Multicore Out-of-Order Simulator ***
Warmup Instructions: 25000000
Simulation Instructions: 25000000
Number of CPUs: 1
Page size: 4096

Off-chip DRAM Size: 4 GiB Channels: 1 Width: 64-bit Data Race: 800 MT/s
Heartbeat CPU 0 instructions: 10000002 cycles: 2511859 heartbeat IPC: 3.981 cumulative IPC: 3.981 (Simulation time: 00 hr 00 min 59 sec)
Heartbeat CPU 0 instructions: 20000002 cycles: 5023661 heartbeat IPC: 3.981 cumulative IPC: 3.981 (Simulation time: 00 hr 02 min 02 sec)
Warmup finished CPU 0 instructions: 25000000 cycles: 6673362 cumulative IPC: 3.746 (Simulation time: 00 hr 02 min 49 sec)
Warmup complete CPU 0 instructions: 25000000 cycles: 6673362 cumulative IPC: 3.746 (Simulation time: 00 hr 02 min 49 sec)
Heartbeat CPU 0 instructions: 30000003 cycles: 28921310 heartbeat IPC: 0.4185 cumulative IPC: 0.2247 (Simulation time: 00 hr 06 min 56 sec)
Heartbeat CPU 0 instructions: 40000001 cycles: 76998833 heartbeat IPC: 0.208 cumulative IPC: 0.2133 (Simulation time: 00 hr 15 min 17 sec)
Heartbeat CPU 0 instructions: 50000001 cycles: 123211427 heartbeat IPC: 0.2164 cumulative IPC: 0.2145 (Simulation time: 00 hr 23 min 26 sec)
Simulation finished CPU 0 instructions: 25000001 cycles: 116538066 cumulative IPC: 0.2145 (Simulation time: 00 hr 23 min 26 sec)
Simulation complete CPU 0 instructions: 25000001 cycles: 116538066 cumulative IPC: 0.2145 (Simulation time: 00 hr 23 min 26 sec)

ChampSim completed all CPUs

=== Simulation ===
CPU 0 runs ./traces/lbm_564B.trace.xz
Region of Interest Statistics

CPU 0 cumulative IPC: 0.2145 instructions: 25000001 cycles: 116538066
CPU 0 Branch Prediction Accuracy: 99.23% MPKI: 0.094 Average ROB Occupancy at Mispredict: 251.8
Branch type MPKI
BRANCH_DIRECT_JUMP: 0
BRANCH_INDIRECT: 0
BRANCH_CONDITIONAL: 0.094
BRANCH_DIRECT_CALL: 0
BRANCH_INDIRECT_CALL: 0
BRANCH_RETURN: 0

LLC TOTAL        ACCESS:    1388548 HIT:     404664 MISS:     983884
LLC LOAD         ACCESS:      92077 HIT:       1280 MISS:      90797
LLC RFO          ACCESS:     594872 HIT:      55410 MISS:     539462
LLC PREFETCH     ACCESS:     103651 HIT:        938 MISS:     102713
LLC WRITE        ACCESS:     597180 HIT:     346408 MISS:     250772
LLC TRANSLATION  ACCESS:        768 HIT:        628 MISS:        140
LLC PREFETCH REQUESTED:          0 ISSUED:          0 USEFUL:          0 USELESS:          0
LLC AVERAGE MISS LATENCY: 1629 cycles
cpu0_DTLB TOTAL        ACCESS:    4111635 HIT:    4094800 MISS:      16835
cpu0_DTLB LOAD         ACCESS:    4111635 HIT:    4094800 MISS:      16835
cpu0_DTLB RFO          ACCESS:          0 HIT:          0 MISS:          0
cpu0_DTLB PREFETCH     ACCESS:          0 HIT:          0 MISS:          0
cpu0_DTLB WRITE        ACCESS:          0 HIT:          0 MISS:          0
cpu0_DTLB TRANSLATION  ACCESS:          0 HIT:          0 MISS:          0
cpu0_DTLB PREFETCH REQUESTED:          0 ISSUED:          0 USEFUL:          0 USELESS:          0
cpu0_DTLB AVERAGE MISS LATENCY: 227.2 cycles
cpu0_ITLB TOTAL        ACCESS:          0 HIT:          0 MISS:          0
cpu0_ITLB LOAD         ACCESS:          0 HIT:          0 MISS:          0
cpu0_ITLB RFO          ACCESS:          0 HIT:          0 MISS:          0
cpu0_ITLB PREFETCH     ACCESS:          0 HIT:          0 MISS:          0
cpu0_ITLB WRITE        ACCESS:          0 HIT:          0 MISS:          0
cpu0_ITLB TRANSLATION  ACCESS:          0 HIT:          0 MISS:          0
cpu0_ITLB PREFETCH REQUESTED:          0 ISSUED:          0 USEFUL:          0 USELESS:          0
cpu0_ITLB AVERAGE MISS LATENCY: -nan cycles
cpu0_L1D TOTAL        ACCESS:    7268884 HIT:    3988133 MISS:    3280751
cpu0_L1D LOAD         ACCESS:    2207156 HIT:    1411526 MISS:     795630
cpu0_L1D RFO          ACCESS:          0 HIT:          0 MISS:          0
cpu0_L1D PREFETCH     ACCESS:    2438719 HIT:    1060670 MISS:    1378049
cpu0_L1D WRITE        ACCESS:    2611062 HIT:    1514968 MISS:    1096094
cpu0_L1D TRANSLATION  ACCESS:      11947 HIT:        969 MISS:      10978
cpu0_L1D PREFETCH REQUESTED:    9488322 ISSUED:    2438716 USEFUL:      75748 USELESS:       1837
cpu0_L1D AVERAGE MISS LATENCY: 409.3 cycles
cpu0_L1I TOTAL        ACCESS:          0 HIT:          0 MISS:          0
cpu0_L1I LOAD         ACCESS:          0 HIT:          0 MISS:          0
cpu0_L1I RFO          ACCESS:          0 HIT:          0 MISS:          0
cpu0_L1I PREFETCH     ACCESS:          0 HIT:          0 MISS:          0
cpu0_L1I WRITE        ACCESS:          0 HIT:          0 MISS:          0
cpu0_L1I TRANSLATION  ACCESS:          0 HIT:          0 MISS:          0
cpu0_L1I PREFETCH REQUESTED:          0 ISSUED:          0 USEFUL:          0 USELESS:          0
cpu0_L1I AVERAGE MISS LATENCY: -nan cycles
cpu0_L2C TOTAL        ACCESS:    2416154 HIT:    1623854 MISS:     792300
cpu0_L2C LOAD         ACCESS:     115129 HIT:      22892 MISS:      92237
cpu0_L2C RFO          ACCESS:    1075533 HIT:     480661 MISS:     594872
cpu0_L2C PREFETCH     ACCESS:     138937 HIT:      34514 MISS:     104423
cpu0_L2C WRITE        ACCESS:    1075577 HIT:    1075577 MISS:          0
cpu0_L2C TRANSLATION  ACCESS:      10978 HIT:      10210 MISS:        768
cpu0_L2C PREFETCH REQUESTED:      61351 ISSUED:      61351 USEFUL:      24278 USELESS:         27
cpu0_L2C AVERAGE MISS LATENCY: 2037 cycles
cpu0_STLB TOTAL        ACCESS:      11936 HIT:          0 MISS:      11936
cpu0_STLB LOAD         ACCESS:      11936 HIT:          0 MISS:      11936
cpu0_STLB RFO          ACCESS:          0 HIT:          0 MISS:          0
cpu0_STLB PREFETCH     ACCESS:          0 HIT:          0 MISS:          0
cpu0_STLB WRITE        ACCESS:          0 HIT:          0 MISS:          0
cpu0_STLB TRANSLATION  ACCESS:          0 HIT:          0 MISS:          0
cpu0_STLB PREFETCH REQUESTED:          0 ISSUED:          0 USEFUL:          0 USELESS:          0
cpu0_STLB AVERAGE MISS LATENCY: 342.6 cycles

DRAM Statistics

Channel 0 RQ ROW_BUFFER_HIT:      55147
  ROW_BUFFER_MISS:     676953
 AVG DBUS CONGESTED CYCLE: 3.981
WQ ROW_BUFFER_HIT: Channel 0 
  ROW_BUFFER_MISS:      35692
  FULL:     518924
