WARNING: physical memory size is smaller than virtual memory size.

*** ChampSim Multicore Out-of-Order Simulator ***
Warmup Instructions: 25000000
Simulation Instructions: 25000000
Number of CPUs: 1
Page size: 4096

Off-chip DRAM Size: 4 GiB Channels: 1 Width: 64-bit Data Race: 800 MT/s
Heartbeat CPU 0 instructions: 10000001 cycles: 2500074 heartbeat IPC: 4 cumulative IPC: 4 (Simulation time: 00 hr 00 min 44 sec)
Heartbeat CPU 0 instructions: 20000001 cycles: 5000074 heartbeat IPC: 4 cumulative IPC: 4 (Simulation time: 00 hr 01 min 34 sec)
Warmup finished CPU 0 instructions: 25000001 cycles: 6250075 cumulative IPC: 4 (Simulation time: 00 hr 01 min 58 sec)
Warmup complete CPU 0 instructions: 25000001 cycles: 6250075 cumulative IPC: 4 (Simulation time: 00 hr 01 min 58 sec)
Heartbeat CPU 0 instructions: 30000002 cycles: 32768558 heartbeat IPC: 0.3601 cumulative IPC: 0.1885 (Simulation time: 00 hr 07 min 07 sec)
Heartbeat CPU 0 instructions: 40000000 cycles: 74633235 heartbeat IPC: 0.2389 cumulative IPC: 0.2194 (Simulation time: 00 hr 15 min 02 sec)
Heartbeat CPU 0 instructions: 50000003 cycles: 85728448 heartbeat IPC: 0.9013 cumulative IPC: 0.3146 (Simulation time: 00 hr 17 min 19 sec)
Simulation finished CPU 0 instructions: 25000002 cycles: 79478374 cumulative IPC: 0.3146 (Simulation time: 00 hr 17 min 19 sec)
Simulation complete CPU 0 instructions: 25000002 cycles: 79478374 cumulative IPC: 0.3146 (Simulation time: 00 hr 17 min 19 sec)

ChampSim completed all CPUs

=== Simulation ===
CPU 0 runs ./traces/libquantum_964B.trace.xz
Region of Interest Statistics

CPU 0 cumulative IPC: 0.3146 instructions: 25000002 cycles: 79478374
CPU 0 Branch Prediction Accuracy: 99.98% MPKI: 0.05316 Average ROB Occupancy at Mispredict: 84.13
Branch type MPKI
BRANCH_DIRECT_JUMP: 4e-05
BRANCH_INDIRECT: 0
BRANCH_CONDITIONAL: 0.0527
BRANCH_DIRECT_CALL: 0.0002
BRANCH_INDIRECT_CALL: 0
BRANCH_RETURN: 0.0002

LLC TOTAL        ACCESS:    1814375 HIT:     138620 MISS:    1675755
LLC LOAD         ACCESS:     209615 HIT:       9483 MISS:     200132
LLC RFO          ACCESS:          8 HIT:          4 MISS:          4
LLC PREFETCH     ACCESS:    1078516 HIT:       8597 MISS:    1069919
LLC WRITE        ACCESS:     526199 HIT:     120532 MISS:     405667
LLC TRANSLATION  ACCESS:         37 HIT:          4 MISS:         33
LLC PREFETCH REQUESTED:          0 ISSUED:          0 USEFUL:          0 USELESS:          0
LLC AVERAGE MISS LATENCY: 593.8 cycles
cpu0_DTLB TOTAL        ACCESS:    4202800 HIT:    4139638 MISS:      63162
cpu0_DTLB LOAD         ACCESS:    4202800 HIT:    4139638 MISS:      63162
cpu0_DTLB RFO          ACCESS:          0 HIT:          0 MISS:          0
cpu0_DTLB PREFETCH     ACCESS:          0 HIT:          0 MISS:          0
cpu0_DTLB WRITE        ACCESS:          0 HIT:          0 MISS:          0
cpu0_DTLB TRANSLATION  ACCESS:          0 HIT:          0 MISS:          0
cpu0_DTLB PREFETCH REQUESTED:          0 ISSUED:          0 USEFUL:          0 USELESS:          0
cpu0_DTLB AVERAGE MISS LATENCY: 4.657 cycles
cpu0_ITLB TOTAL        ACCESS:          8 HIT:          7 MISS:          1
cpu0_ITLB LOAD         ACCESS:          8 HIT:          7 MISS:          1
cpu0_ITLB RFO          ACCESS:          0 HIT:          0 MISS:          0
cpu0_ITLB PREFETCH     ACCESS:          0 HIT:          0 MISS:          0
cpu0_ITLB WRITE        ACCESS:          0 HIT:          0 MISS:          0
cpu0_ITLB TRANSLATION  ACCESS:          0 HIT:          0 MISS:          0
cpu0_ITLB PREFETCH REQUESTED:          0 ISSUED:          0 USEFUL:          0 USELESS:          0
cpu0_ITLB AVERAGE MISS LATENCY: 457 cycles
cpu0_L1D TOTAL        ACCESS:    8220525 HIT:    2325839 MISS:    5894686
cpu0_L1D LOAD         ACCESS:    3423807 HIT:     121333 MISS:    3302474
cpu0_L1D RFO          ACCESS:          0 HIT:          0 MISS:          0
cpu0_L1D PREFETCH     ACCESS:    2683706 HIT:      91560 MISS:    2592146
cpu0_L1D WRITE        ACCESS:    2098512 HIT:    2098483 MISS:         29
cpu0_L1D TRANSLATION  ACCESS:      14500 HIT:      14463 MISS:         37
cpu0_L1D PREFETCH REQUESTED:   21139336 ISSUED:    2683706 USEFUL:     509451 USELESS:         29
cpu0_L1D AVERAGE MISS LATENCY: 141.1 cycles
cpu0_L1I TOTAL        ACCESS:          8 HIT:          5 MISS:          3
cpu0_L1I LOAD         ACCESS:          8 HIT:          5 MISS:          3
cpu0_L1I RFO          ACCESS:          0 HIT:          0 MISS:          0
cpu0_L1I PREFETCH     ACCESS:          0 HIT:          0 MISS:          0
cpu0_L1I WRITE        ACCESS:          0 HIT:          0 MISS:          0
cpu0_L1I TRANSLATION  ACCESS:          0 HIT:          0 MISS:          0
cpu0_L1I PREFETCH REQUESTED:          0 ISSUED:          0 USEFUL:          0 USELESS:          0
cpu0_L1I AVERAGE MISS LATENCY: 257.3 cycles
cpu0_L2C TOTAL        ACCESS:    3710414 HIT:     537432 MISS:    3172982
cpu0_L2C LOAD         ACCESS:     417951 HIT:       2628 MISS:     415323
cpu0_L2C RFO          ACCESS:          8 HIT:          0 MISS:          8
cpu0_L2C PREFETCH     ACCESS:    2766747 HIT:       9133 MISS:    2757614
cpu0_L2C WRITE        ACCESS:     525671 HIT:     525671 MISS:          0
cpu0_L2C TRANSLATION  ACCESS:         37 HIT:          0 MISS:         37
cpu0_L2C PREFETCH REQUESTED:    2257268 ISSUED:    2257268 USEFUL:     245849 USELESS:     387549
cpu0_L2C AVERAGE MISS LATENCY: 295.2 cycles
cpu0_STLB TOTAL        ACCESS:      14500 HIT:          0 MISS:      14500
cpu0_STLB LOAD         ACCESS:      14500 HIT:          0 MISS:      14500
cpu0_STLB RFO          ACCESS:          0 HIT:          0 MISS:          0
cpu0_STLB PREFETCH     ACCESS:          0 HIT:          0 MISS:          0
cpu0_STLB WRITE        ACCESS:          0 HIT:          0 MISS:          0
cpu0_STLB TRANSLATION  ACCESS:          0 HIT:          0 MISS:          0
cpu0_STLB PREFETCH REQUESTED:          0 ISSUED:          0 USEFUL:          0 USELESS:          0
cpu0_STLB AVERAGE MISS LATENCY: 20.77 cycles

DRAM Statistics

Channel 0 RQ ROW_BUFFER_HIT:     550278
  ROW_BUFFER_MISS:     376114
 AVG DBUS CONGESTED CYCLE: 3.961
WQ ROW_BUFFER_HIT: Channel 0 
  ROW_BUFFER_MISS:     134840
  FULL:     392578
