WARNING: physical memory size is smaller than virtual memory size.

*** ChampSim Multicore Out-of-Order Simulator ***
Warmup Instructions: 25000000
Simulation Instructions: 25000000
Number of CPUs: 1
Page size: 4096

Off-chip DRAM Size: 4 GiB Channels: 1 Width: 64-bit Data Race: 800 MT/s
Heartbeat CPU 0 instructions: 10000001 cycles: 2514818 heartbeat IPC: 3.976 cumulative IPC: 3.976 (Simulation time: 00 hr 01 min 22 sec)
Heartbeat CPU 0 instructions: 20000001 cycles: 5021346 heartbeat IPC: 3.99 cumulative IPC: 3.983 (Simulation time: 00 hr 02 min 45 sec)
Warmup finished CPU 0 instructions: 25000001 cycles: 6271492 cumulative IPC: 3.986 (Simulation time: 00 hr 03 min 28 sec)
Warmup complete CPU 0 instructions: 25000001 cycles: 6271492 cumulative IPC: 3.986 (Simulation time: 00 hr 03 min 28 sec)
Heartbeat CPU 0 instructions: 30000001 cycles: 79889728 heartbeat IPC: 0.1336 cumulative IPC: 0.06792 (Simulation time: 00 hr 13 min 06 sec)
Heartbeat CPU 0 instructions: 40000003 cycles: 234647058 heartbeat IPC: 0.06462 cumulative IPC: 0.06568 (Simulation time: 00 hr 27 min 53 sec)
Heartbeat CPU 0 instructions: 50000002 cycles: 379927928 heartbeat IPC: 0.06883 cumulative IPC: 0.06691 (Simulation time: 00 hr 36 min 02 sec)
Simulation finished CPU 0 instructions: 25000001 cycles: 373656437 cumulative IPC: 0.06691 (Simulation time: 00 hr 36 min 02 sec)
Simulation complete CPU 0 instructions: 25000001 cycles: 373656437 cumulative IPC: 0.06691 (Simulation time: 00 hr 36 min 02 sec)

ChampSim completed all CPUs

=== Simulation ===
CPU 0 runs ./traces/mcf_250B.trace.xz
Region of Interest Statistics

CPU 0 cumulative IPC: 0.06691 instructions: 25000001 cycles: 373656437
CPU 0 Branch Prediction Accuracy: 90.47% MPKI: 29.3 Average ROB Occupancy at Mispredict: 18.91
Branch type MPKI
BRANCH_DIRECT_JUMP: 0.0611
BRANCH_INDIRECT: 0
BRANCH_CONDITIONAL: 29.2
BRANCH_DIRECT_CALL: 0
BRANCH_INDIRECT_CALL: 0
BRANCH_RETURN: 0

LLC TOTAL        ACCESS:    6457624 HIT:    3212218 MISS:    3245406
LLC LOAD         ACCESS:    3173789 HIT:    2079837 MISS:    1093952
LLC RFO          ACCESS:       6062 HIT:       1627 MISS:       4435
LLC PREFETCH     ACCESS:    3102921 HIT:    1028153 MISS:    2074768
LLC WRITE        ACCESS:      60101 HIT:      59391 MISS:        710
LLC TRANSLATION  ACCESS:     114751 HIT:      43210 MISS:      71541
LLC PREFETCH REQUESTED:          0 ISSUED:          0 USEFUL:          0 USELESS:          0
LLC AVERAGE MISS LATENCY: 810.5 cycles
cpu0_DTLB TOTAL        ACCESS:    6883926 HIT:     581484 MISS:    6302442
cpu0_DTLB LOAD         ACCESS:    6883926 HIT:     581484 MISS:    6302442
cpu0_DTLB RFO          ACCESS:          0 HIT:          0 MISS:          0
cpu0_DTLB PREFETCH     ACCESS:          0 HIT:          0 MISS:          0
cpu0_DTLB WRITE        ACCESS:          0 HIT:          0 MISS:          0
cpu0_DTLB TRANSLATION  ACCESS:          0 HIT:          0 MISS:          0
cpu0_DTLB PREFETCH REQUESTED:          0 ISSUED:          0 USEFUL:          0 USELESS:          0
cpu0_DTLB AVERAGE MISS LATENCY: 15.25 cycles
cpu0_ITLB TOTAL        ACCESS:          0 HIT:          0 MISS:          0
cpu0_ITLB LOAD         ACCESS:          0 HIT:          0 MISS:          0
cpu0_ITLB RFO          ACCESS:          0 HIT:          0 MISS:          0
cpu0_ITLB PREFETCH     ACCESS:          0 HIT:          0 MISS:          0
cpu0_ITLB WRITE        ACCESS:          0 HIT:          0 MISS:          0
cpu0_ITLB TRANSLATION  ACCESS:          0 HIT:          0 MISS:          0
cpu0_ITLB PREFETCH REQUESTED:          0 ISSUED:          0 USEFUL:          0 USELESS:          0
cpu0_ITLB AVERAGE MISS LATENCY: -nan cycles
cpu0_L1D TOTAL        ACCESS:   14160807 HIT:     591227 MISS:   13569580
cpu0_L1D LOAD         ACCESS:    7329225 HIT:     298180 MISS:    7031045
cpu0_L1D RFO          ACCESS:          0 HIT:          0 MISS:          0
cpu0_L1D PREFETCH     ACCESS:    6605838 HIT:     202449 MISS:    6403389
cpu0_L1D WRITE        ACCESS:      95105 HIT:      87069 MISS:       8036
cpu0_L1D TRANSLATION  ACCESS:     130639 HIT:       3529 MISS:     127110
cpu0_L1D PREFETCH REQUESTED:   14870415 ISSUED:    6605830 USEFUL:      36792 USELESS:    3726899
cpu0_L1D AVERAGE MISS LATENCY: 209.8 cycles
cpu0_L1I TOTAL        ACCESS:          0 HIT:          0 MISS:          0
cpu0_L1I LOAD         ACCESS:          0 HIT:          0 MISS:          0
cpu0_L1I RFO          ACCESS:          0 HIT:          0 MISS:          0
cpu0_L1I PREFETCH     ACCESS:          0 HIT:          0 MISS:          0
cpu0_L1I WRITE        ACCESS:          0 HIT:          0 MISS:          0
cpu0_L1I TRANSLATION  ACCESS:          0 HIT:          0 MISS:          0
cpu0_L1I PREFETCH REQUESTED:          0 ISSUED:          0 USEFUL:          0 USELESS:          0
cpu0_L1I AVERAGE MISS LATENCY: -nan cycles
cpu0_L2C TOTAL        ACCESS:    8796768 HIT:    2399209 MISS:    6397559
cpu0_L2C LOAD         ACCESS:    4836369 HIT:    1662567 MISS:    3173802
cpu0_L2C RFO          ACCESS:       7087 HIT:       1025 MISS:       6062
cpu0_L2C PREFETCH     ACCESS:    3764800 HIT:     661857 MISS:    3102943
cpu0_L2C WRITE        ACCESS:      61522 HIT:      61521 MISS:          1
cpu0_L2C TRANSLATION  ACCESS:     126990 HIT:      12239 MISS:     114751
cpu0_L2C PREFETCH REQUESTED:        948 ISSUED:        948 USEFUL:        228 USELESS:        509
cpu0_L2C AVERAGE MISS LATENCY: 431.7 cycles
cpu0_STLB TOTAL        ACCESS:    4586299 HIT:    4491838 MISS:      94461
cpu0_STLB LOAD         ACCESS:    4586299 HIT:    4491838 MISS:      94461
cpu0_STLB RFO          ACCESS:          0 HIT:          0 MISS:          0
cpu0_STLB PREFETCH     ACCESS:          0 HIT:          0 MISS:          0
cpu0_STLB WRITE        ACCESS:          0 HIT:          0 MISS:          0
cpu0_STLB TRANSLATION  ACCESS:          0 HIT:          0 MISS:          0
cpu0_STLB PREFETCH REQUESTED:          0 ISSUED:          0 USEFUL:          0 USELESS:          0
cpu0_STLB AVERAGE MISS LATENCY: 666.5 cycles

DRAM Statistics

Channel 0 RQ ROW_BUFFER_HIT:      44875
  ROW_BUFFER_MISS:    3199444
 AVG DBUS CONGESTED CYCLE: 3.974
WQ ROW_BUFFER_HIT: Channel 0 
  ROW_BUFFER_MISS:       1604
  FULL:      54173
