WARNING: physical memory size is smaller than virtual memory size.

*** ChampSim Multicore Out-of-Order Simulator ***
Warmup Instructions: 25000000
Simulation Instructions: 25000000
Number of CPUs: 1
Page size: 4096

Off-chip DRAM Size: 4 GiB Channels: 1 Width: 64-bit Data Race: 800 MT/s
Heartbeat CPU 0 instructions: 10000001 cycles: 2500095 heartbeat IPC: 4 cumulative IPC: 4 (Simulation time: 00 hr 00 min 54 sec)
Heartbeat CPU 0 instructions: 20000001 cycles: 5000095 heartbeat IPC: 4 cumulative IPC: 4 (Simulation time: 00 hr 01 min 52 sec)
Warmup finished CPU 0 instructions: 25000001 cycles: 6250096 cumulative IPC: 4 (Simulation time: 00 hr 02 min 21 sec)
Warmup complete CPU 0 instructions: 25000001 cycles: 6250096 cumulative IPC: 4 (Simulation time: 00 hr 02 min 21 sec)
Heartbeat CPU 0 instructions: 30000002 cycles: 17211315 heartbeat IPC: 0.8189 cumulative IPC: 0.4562 (Simulation time: 00 hr 04 min 35 sec)
Heartbeat CPU 0 instructions: 40000002 cycles: 39207294 heartbeat IPC: 0.4546 cumulative IPC: 0.4551 (Simulation time: 00 hr 09 min 03 sec)
Heartbeat CPU 0 instructions: 50000002 cycles: 73370104 heartbeat IPC: 0.2927 cumulative IPC: 0.3725 (Simulation time: 00 hr 15 min 44 sec)
Simulation finished CPU 0 instructions: 25000001 cycles: 67120009 cumulative IPC: 0.3725 (Simulation time: 00 hr 15 min 44 sec)
Simulation complete CPU 0 instructions: 25000001 cycles: 67120009 cumulative IPC: 0.3725 (Simulation time: 00 hr 15 min 44 sec)

ChampSim completed all CPUs

=== Simulation ===
CPU 0 runs ./traces/milc_360B.trace.xz
Region of Interest Statistics

CPU 0 cumulative IPC: 0.3725 instructions: 25000001 cycles: 67120009
CPU 0 Branch Prediction Accuracy: 100% MPKI: 0.00052 Average ROB Occupancy at Mispredict: 95
Branch type MPKI
BRANCH_DIRECT_JUMP: 0
BRANCH_INDIRECT: 0
BRANCH_CONDITIONAL: 0.00036
BRANCH_DIRECT_CALL: 0.00012
BRANCH_INDIRECT_CALL: 0
BRANCH_RETURN: 4e-05

LLC TOTAL        ACCESS:     900374 HIT:     157234 MISS:     743140
LLC LOAD         ACCESS:     239224 HIT:       1433 MISS:     237791
LLC RFO          ACCESS:       2962 HIT:          0 MISS:       2962
LLC PREFETCH     ACCESS:     412899 HIT:        723 MISS:     412176
LLC WRITE        ACCESS:     245129 HIT:     155009 MISS:      90120
LLC TRANSLATION  ACCESS:        160 HIT:         69 MISS:         91
LLC PREFETCH REQUESTED:          0 ISSUED:          0 USEFUL:          0 USELESS:          0
LLC AVERAGE MISS LATENCY: 1062 cycles
cpu0_DTLB TOTAL        ACCESS:    5981947 HIT:    5756038 MISS:     225909
cpu0_DTLB LOAD         ACCESS:    5981947 HIT:    5756038 MISS:     225909
cpu0_DTLB RFO          ACCESS:          0 HIT:          0 MISS:          0
cpu0_DTLB PREFETCH     ACCESS:          0 HIT:          0 MISS:          0
cpu0_DTLB WRITE        ACCESS:          0 HIT:          0 MISS:          0
cpu0_DTLB TRANSLATION  ACCESS:          0 HIT:          0 MISS:          0
cpu0_DTLB PREFETCH REQUESTED:          0 ISSUED:          0 USEFUL:          0 USELESS:          0
cpu0_DTLB AVERAGE MISS LATENCY: 17.96 cycles
cpu0_ITLB TOTAL        ACCESS:         17 HIT:         15 MISS:          2
cpu0_ITLB LOAD         ACCESS:         17 HIT:         15 MISS:          2
cpu0_ITLB RFO          ACCESS:          0 HIT:          0 MISS:          0
cpu0_ITLB PREFETCH     ACCESS:          0 HIT:          0 MISS:          0
cpu0_ITLB WRITE        ACCESS:          0 HIT:          0 MISS:          0
cpu0_ITLB TRANSLATION  ACCESS:          0 HIT:          0 MISS:          0
cpu0_ITLB PREFETCH REQUESTED:          0 ISSUED:          0 USEFUL:          0 USELESS:          0
cpu0_ITLB AVERAGE MISS LATENCY: 1387 cycles
cpu0_L1D TOTAL        ACCESS:   10388731 HIT:    7128038 MISS:    3260693
cpu0_L1D LOAD         ACCESS:    2705616 HIT:    1059287 MISS:    1646329
cpu0_L1D RFO          ACCESS:          0 HIT:          0 MISS:          0
cpu0_L1D PREFETCH     ACCESS:    2265082 HIT:     722566 MISS:    1542516
cpu0_L1D WRITE        ACCESS:    5381500 HIT:    5311271 MISS:      70229
cpu0_L1D TRANSLATION  ACCESS:      36533 HIT:      34914 MISS:       1619
cpu0_L1D PREFETCH REQUESTED:    2734288 ISSUED:    2265090 USEFUL:     253257 USELESS:     126185
cpu0_L1D AVERAGE MISS LATENCY: 190.9 cycles
cpu0_L1I TOTAL        ACCESS:         17 HIT:          3 MISS:         14
cpu0_L1I LOAD         ACCESS:         17 HIT:          3 MISS:         14
cpu0_L1I RFO          ACCESS:          0 HIT:          0 MISS:          0
cpu0_L1I PREFETCH     ACCESS:          0 HIT:          0 MISS:          0
cpu0_L1I WRITE        ACCESS:          0 HIT:          0 MISS:          0
cpu0_L1I TRANSLATION  ACCESS:          0 HIT:          0 MISS:          0
cpu0_L1I PREFETCH REQUESTED:          0 ISSUED:          0 USEFUL:          0 USELESS:          0
cpu0_L1I AVERAGE MISS LATENCY: 348.9 cycles
cpu0_L2C TOTAL        ACCESS:    1048192 HIT:     281105 MISS:     767087
cpu0_L2C LOAD         ACCESS:     268766 HIT:       6592 MISS:     262174
cpu0_L2C RFO          ACCESS:      11973 HIT:       9010 MISS:       2963
cpu0_L2C PREFETCH     ACCESS:     509475 HIT:       7687 MISS:     501788
cpu0_L2C WRITE        ACCESS:     256361 HIT:     256359 MISS:          2
cpu0_L2C TRANSLATION  ACCESS:       1617 HIT:       1457 MISS:        160
cpu0_L2C PREFETCH REQUESTED:     130068 ISSUED:     130068 USEFUL:      40026 USELESS:       4722
cpu0_L2C AVERAGE MISS LATENCY: 1008 cycles
cpu0_STLB TOTAL        ACCESS:      36455 HIT:          0 MISS:      36455
cpu0_STLB LOAD         ACCESS:      36455 HIT:          0 MISS:      36455
cpu0_STLB RFO          ACCESS:          0 HIT:          0 MISS:          0
cpu0_STLB PREFETCH     ACCESS:          0 HIT:          0 MISS:          0
cpu0_STLB WRITE        ACCESS:          0 HIT:          0 MISS:          0
cpu0_STLB TRANSLATION  ACCESS:          0 HIT:          0 MISS:          0
cpu0_STLB PREFETCH REQUESTED:          0 ISSUED:          0 USEFUL:          0 USELESS:          0
cpu0_STLB AVERAGE MISS LATENCY: 209.1 cycles

DRAM Statistics

Channel 0 RQ ROW_BUFFER_HIT:     452266
  ROW_BUFFER_MISS:     197497
 AVG DBUS CONGESTED CYCLE: 3.881
WQ ROW_BUFFER_HIT: Channel 0 
  ROW_BUFFER_MISS:      32531
  FULL:     195525
