WARNING: physical memory size is smaller than virtual memory size.

*** ChampSim Multicore Out-of-Order Simulator ***
Warmup Instructions: 25000000
Simulation Instructions: 25000000
Number of CPUs: 1
Page size: 4096

Off-chip DRAM Size: 4 GiB Channels: 1 Width: 64-bit Data Race: 800 MT/s
Heartbeat CPU 0 instructions: 10000001 cycles: 2780081 heartbeat IPC: 3.597 cumulative IPC: 3.597 (Simulation time: 00 hr 01 min 02 sec)
Heartbeat CPU 0 instructions: 20000001 cycles: 5280081 heartbeat IPC: 4 cumulative IPC: 3.788 (Simulation time: 00 hr 02 min 02 sec)
Warmup finished CPU 0 instructions: 25000001 cycles: 6530082 cumulative IPC: 3.828 (Simulation time: 00 hr 02 min 30 sec)
Warmup complete CPU 0 instructions: 25000001 cycles: 6530082 cumulative IPC: 3.828 (Simulation time: 00 hr 02 min 30 sec)
Heartbeat CPU 0 instructions: 30000000 cycles: 17107270 heartbeat IPC: 0.8455 cumulative IPC: 0.4727 (Simulation time: 00 hr 04 min 40 sec)
Heartbeat CPU 0 instructions: 40000002 cycles: 38223383 heartbeat IPC: 0.4736 cumulative IPC: 0.4733 (Simulation time: 00 hr 09 min 05 sec)
Heartbeat CPU 0 instructions: 50000001 cycles: 59349170 heartbeat IPC: 0.4734 cumulative IPC: 0.4733 (Simulation time: 00 hr 13 min 22 sec)
Simulation finished CPU 0 instructions: 25000000 cycles: 52819089 cumulative IPC: 0.4733 (Simulation time: 00 hr 13 min 22 sec)
Simulation complete CPU 0 instructions: 25000000 cycles: 52819089 cumulative IPC: 0.4733 (Simulation time: 00 hr 13 min 22 sec)

ChampSim completed all CPUs

=== Simulation ===
CPU 0 runs ./traces/milc_409B.trace.xz
Region of Interest Statistics

CPU 0 cumulative IPC: 0.4733 instructions: 25000000 cycles: 52819089
CPU 0 Branch Prediction Accuracy: 100% MPKI: 0.00016 Average ROB Occupancy at Mispredict: 219.8
Branch type MPKI
BRANCH_DIRECT_JUMP: 4e-05
BRANCH_INDIRECT: 0
BRANCH_CONDITIONAL: 0.00012
BRANCH_DIRECT_CALL: 0
BRANCH_INDIRECT_CALL: 0
BRANCH_RETURN: 0

LLC TOTAL        ACCESS:     723402 HIT:      63121 MISS:     660281
LLC LOAD         ACCESS:     160715 HIT:          0 MISS:     160715
LLC RFO          ACCESS:          0 HIT:          0 MISS:          0
LLC PREFETCH     ACCESS:     392313 HIT:          0 MISS:     392313
LLC WRITE        ACCESS:     170197 HIT:      63038 MISS:     107159
LLC TRANSLATION  ACCESS:        177 HIT:         83 MISS:         94
LLC PREFETCH REQUESTED:          0 ISSUED:          0 USEFUL:          0 USELESS:          0
LLC AVERAGE MISS LATENCY: 721.1 cycles
cpu0_DTLB TOTAL        ACCESS:    5708990 HIT:    5481331 MISS:     227659
cpu0_DTLB LOAD         ACCESS:    5708990 HIT:    5481331 MISS:     227659
cpu0_DTLB RFO          ACCESS:          0 HIT:          0 MISS:          0
cpu0_DTLB PREFETCH     ACCESS:          0 HIT:          0 MISS:          0
cpu0_DTLB WRITE        ACCESS:          0 HIT:          0 MISS:          0
cpu0_DTLB TRANSLATION  ACCESS:          0 HIT:          0 MISS:          0
cpu0_DTLB PREFETCH REQUESTED:          0 ISSUED:          0 USEFUL:          0 USELESS:          0
cpu0_DTLB AVERAGE MISS LATENCY: 22.56 cycles
cpu0_ITLB TOTAL        ACCESS:          1 HIT:          1 MISS:          0
cpu0_ITLB LOAD         ACCESS:          1 HIT:          1 MISS:          0
cpu0_ITLB RFO          ACCESS:          0 HIT:          0 MISS:          0
cpu0_ITLB PREFETCH     ACCESS:          0 HIT:          0 MISS:          0
cpu0_ITLB WRITE        ACCESS:          0 HIT:          0 MISS:          0
cpu0_ITLB TRANSLATION  ACCESS:          0 HIT:          0 MISS:          0
cpu0_ITLB PREFETCH REQUESTED:          0 ISSUED:          0 USEFUL:          0 USELESS:          0
cpu0_ITLB AVERAGE MISS LATENCY: -nan cycles
cpu0_L1D TOTAL        ACCESS:    8993862 HIT:    7496271 MISS:    1497591
cpu0_L1D LOAD         ACCESS:    1581825 HIT:     986494 MISS:     595331
cpu0_L1D RFO          ACCESS:          0 HIT:          0 MISS:          0
cpu0_L1D PREFETCH     ACCESS:    1580446 HIT:     742574 MISS:     837872
cpu0_L1D WRITE        ACCESS:    5786959 HIT:    5724735 MISS:      62224
cpu0_L1D TRANSLATION  ACCESS:      44632 HIT:      42468 MISS:       2164
cpu0_L1D PREFETCH REQUESTED:    1581825 ISSUED:    1580446 USEFUL:     165207 USELESS:     172064
cpu0_L1D AVERAGE MISS LATENCY: 257.7 cycles
cpu0_L1I TOTAL        ACCESS:          1 HIT:          0 MISS:          1
cpu0_L1I LOAD         ACCESS:          1 HIT:          0 MISS:          1
cpu0_L1I RFO          ACCESS:          0 HIT:          0 MISS:          0
cpu0_L1I PREFETCH     ACCESS:          0 HIT:          0 MISS:          0
cpu0_L1I WRITE        ACCESS:          0 HIT:          0 MISS:          0
cpu0_L1I TRANSLATION  ACCESS:          0 HIT:          0 MISS:          0
cpu0_L1I PREFETCH REQUESTED:          0 ISSUED:          0 USEFUL:          0 USELESS:          0
cpu0_L1I AVERAGE MISS LATENCY: 240 cycles
cpu0_L2C TOTAL        ACCESS:     830809 HIT:     198477 MISS:     632332
cpu0_L2C LOAD         ACCESS:     217752 HIT:        422 MISS:     217330
cpu0_L2C RFO          ACCESS:      11801 HIT:      11801 MISS:          0
cpu0_L2C PREFETCH     ACCESS:     416821 HIT:       1996 MISS:     414825
cpu0_L2C WRITE        ACCESS:     182271 HIT:     182271 MISS:          0
cpu0_L2C TRANSLATION  ACCESS:       2164 HIT:       1987 MISS:        177
cpu0_L2C PREFETCH REQUESTED:      79546 ISSUED:      79546 USEFUL:      59437 USELESS:          0
cpu0_L2C AVERAGE MISS LATENCY: 726.8 cycles
cpu0_STLB TOTAL        ACCESS:      44546 HIT:          0 MISS:      44546
cpu0_STLB LOAD         ACCESS:      44546 HIT:          0 MISS:      44546
cpu0_STLB RFO          ACCESS:          0 HIT:          0 MISS:          0
cpu0_STLB PREFETCH     ACCESS:          0 HIT:          0 MISS:          0
cpu0_STLB WRITE        ACCESS:          0 HIT:          0 MISS:          0
cpu0_STLB TRANSLATION  ACCESS:          0 HIT:          0 MISS:          0
cpu0_STLB PREFETCH REQUESTED:          0 ISSUED:          0 USEFUL:          0 USELESS:          0
cpu0_STLB AVERAGE MISS LATENCY: 208.2 cycles

DRAM Statistics

Channel 0 RQ ROW_BUFFER_HIT:     374071
  ROW_BUFFER_MISS:     179048
 AVG DBUS CONGESTED CYCLE: 3.862
WQ ROW_BUFFER_HIT: Channel 0 
  ROW_BUFFER_MISS:      11323
  FULL:     158949
