WARNING: physical memory size is smaller than virtual memory size.

*** ChampSim Multicore Out-of-Order Simulator ***
Warmup Instructions: 25000000
Simulation Instructions: 25000000
Number of CPUs: 1
Page size: 4096

Off-chip DRAM Size: 4 GiB Channels: 1 Width: 64-bit Data Race: 800 MT/s
Heartbeat CPU 0 instructions: 10000003 cycles: 2517031 heartbeat IPC: 3.973 cumulative IPC: 3.973 (Simulation time: 00 hr 00 min 49 sec)
Heartbeat CPU 0 instructions: 20000001 cycles: 5026612 heartbeat IPC: 3.985 cumulative IPC: 3.979 (Simulation time: 00 hr 01 min 38 sec)
Warmup finished CPU 0 instructions: 25000003 cycles: 6285022 cumulative IPC: 3.978 (Simulation time: 00 hr 02 min 03 sec)
Warmup complete CPU 0 instructions: 25000003 cycles: 6285022 cumulative IPC: 3.978 (Simulation time: 00 hr 02 min 03 sec)
Heartbeat CPU 0 instructions: 30000000 cycles: 12670913 heartbeat IPC: 1.308 cumulative IPC: 0.783 (Simulation time: 00 hr 03 min 31 sec)
Heartbeat CPU 0 instructions: 40000001 cycles: 24892418 heartbeat IPC: 0.8182 cumulative IPC: 0.8061 (Simulation time: 00 hr 06 min 06 sec)
Heartbeat CPU 0 instructions: 50000002 cycles: 36490930 heartbeat IPC: 0.8622 cumulative IPC: 0.8277 (Simulation time: 00 hr 08 min 21 sec)
Simulation finished CPU 0 instructions: 25000003 cycles: 30205910 cumulative IPC: 0.8277 (Simulation time: 00 hr 08 min 21 sec)
Simulation complete CPU 0 instructions: 25000003 cycles: 30205910 cumulative IPC: 0.8277 (Simulation time: 00 hr 08 min 21 sec)

ChampSim completed all CPUs

=== Simulation ===
CPU 0 runs ./traces/omnetpp_4B.trace.xz
Region of Interest Statistics

CPU 0 cumulative IPC: 0.8277 instructions: 25000003 cycles: 30205910
CPU 0 Branch Prediction Accuracy: 96.67% MPKI: 10.7 Average ROB Occupancy at Mispredict: 31.41
Branch type MPKI
BRANCH_DIRECT_JUMP: 0.0128
BRANCH_INDIRECT: 0.125
BRANCH_CONDITIONAL: 10.5
BRANCH_DIRECT_CALL: 0.00156
BRANCH_INDIRECT_CALL: 0.00548
BRANCH_RETURN: 0.0298

LLC TOTAL        ACCESS:     964300 HIT:     645649 MISS:     318651
LLC LOAD         ACCESS:     567352 HIT:     521290 MISS:      46062
LLC RFO          ACCESS:       6312 HIT:       1823 MISS:       4489
LLC PREFETCH     ACCESS:     306041 HIT:      81023 MISS:     225018
LLC WRITE        ACCESS:      20967 HIT:      17777 MISS:       3190
LLC TRANSLATION  ACCESS:      63628 HIT:      23736 MISS:      39892
LLC PREFETCH REQUESTED:          0 ISSUED:          0 USEFUL:          0 USELESS:          0
LLC AVERAGE MISS LATENCY: 902.9 cycles
cpu0_DTLB TOTAL        ACCESS:    3083590 HIT:    2611204 MISS:     472386
cpu0_DTLB LOAD         ACCESS:    3083590 HIT:    2611204 MISS:     472386
cpu0_DTLB RFO          ACCESS:          0 HIT:          0 MISS:          0
cpu0_DTLB PREFETCH     ACCESS:          0 HIT:          0 MISS:          0
cpu0_DTLB WRITE        ACCESS:          0 HIT:          0 MISS:          0
cpu0_DTLB TRANSLATION  ACCESS:          0 HIT:          0 MISS:          0
cpu0_DTLB PREFETCH REQUESTED:          0 ISSUED:          0 USEFUL:          0 USELESS:          0
cpu0_DTLB AVERAGE MISS LATENCY: 157 cycles
cpu0_ITLB TOTAL        ACCESS:     265056 HIT:     247649 MISS:      17407
cpu0_ITLB LOAD         ACCESS:     265056 HIT:     247649 MISS:      17407
cpu0_ITLB RFO          ACCESS:          0 HIT:          0 MISS:          0
cpu0_ITLB PREFETCH     ACCESS:          0 HIT:          0 MISS:          0
cpu0_ITLB WRITE        ACCESS:          0 HIT:          0 MISS:          0
cpu0_ITLB TRANSLATION  ACCESS:          0 HIT:          0 MISS:          0
cpu0_ITLB PREFETCH REQUESTED:          0 ISSUED:          0 USEFUL:          0 USELESS:          0
cpu0_ITLB AVERAGE MISS LATENCY: 4.864 cycles
cpu0_L1D TOTAL        ACCESS:    6275755 HIT:    4794493 MISS:    1481262
cpu0_L1D LOAD         ACCESS:    2370579 HIT:    1720384 MISS:     650195
cpu0_L1D RFO          ACCESS:          0 HIT:          0 MISS:          0
cpu0_L1D PREFETCH     ACCESS:    2338651 HIT:    1628236 MISS:     710415
cpu0_L1D WRITE        ACCESS:    1204389 HIT:    1157759 MISS:      46630
cpu0_L1D TRANSLATION  ACCESS:     362136 HIT:     288114 MISS:      74022
cpu0_L1D PREFETCH REQUESTED:   10831217 ISSUED:    2338651 USEFUL:      39313 USELESS:     227381
cpu0_L1D AVERAGE MISS LATENCY: 201.3 cycles
cpu0_L1I TOTAL        ACCESS:     291251 HIT:     267292 MISS:      23959
cpu0_L1I LOAD         ACCESS:     291251 HIT:     267292 MISS:      23959
cpu0_L1I RFO          ACCESS:          0 HIT:          0 MISS:          0
cpu0_L1I PREFETCH     ACCESS:          0 HIT:          0 MISS:          0
cpu0_L1I WRITE        ACCESS:          0 HIT:          0 MISS:          0
cpu0_L1I TRANSLATION  ACCESS:          0 HIT:          0 MISS:          0
cpu0_L1I PREFETCH REQUESTED:          0 ISSUED:          0 USEFUL:          0 USELESS:          0
cpu0_L1I AVERAGE MISS LATENCY: 31.13 cycles
cpu0_L2C TOTAL        ACCESS:    1063943 HIT:      86776 MISS:     977167
cpu0_L2C LOAD         ACCESS:     603177 HIT:      25630 MISS:     577547
cpu0_L2C RFO          ACCESS:       8077 HIT:       1760 MISS:       6317
cpu0_L2C PREFETCH     ACCESS:     360157 HIT:      30496 MISS:     329661
cpu0_L2C WRITE        ACCESS:      23208 HIT:      23194 MISS:         14
cpu0_L2C TRANSLATION  ACCESS:      69324 HIT:       5696 MISS:      63628
cpu0_L2C PREFETCH REQUESTED:      93456 ISSUED:      93456 USEFUL:      33370 USELESS:       4094
cpu0_L2C AVERAGE MISS LATENCY: 307.6 cycles
cpu0_STLB TOTAL        ACCESS:     365488 HIT:       5903 MISS:     359585
cpu0_STLB LOAD         ACCESS:     365488 HIT:       5903 MISS:     359585
cpu0_STLB RFO          ACCESS:          0 HIT:          0 MISS:          0
cpu0_STLB PREFETCH     ACCESS:          0 HIT:          0 MISS:          0
cpu0_STLB WRITE        ACCESS:          0 HIT:          0 MISS:          0
cpu0_STLB TRANSLATION  ACCESS:          0 HIT:          0 MISS:          0
cpu0_STLB PREFETCH REQUESTED:          0 ISSUED:          0 USEFUL:          0 USELESS:          0
cpu0_STLB AVERAGE MISS LATENCY: 203.2 cycles

DRAM Statistics

Channel 0 RQ ROW_BUFFER_HIT:      97327
  ROW_BUFFER_MISS:     211450
 AVG DBUS CONGESTED CYCLE: 3.878
WQ ROW_BUFFER_HIT: Channel 0 
  ROW_BUFFER_MISS:       2731
  FULL:      14954
