WARNING: physical memory size is smaller than virtual memory size.

*** ChampSim Multicore Out-of-Order Simulator ***
Warmup Instructions: 25000000
Simulation Instructions: 25000000
Number of CPUs: 1
Page size: 4096

Off-chip DRAM Size: 4 GiB Channels: 1 Width: 64-bit Data Race: 800 MT/s
Heartbeat CPU 0 instructions: 10000000 cycles: 2514953 heartbeat IPC: 3.976 cumulative IPC: 3.976 (Simulation time: 00 hr 01 min 03 sec)
Heartbeat CPU 0 instructions: 20000000 cycles: 5031437 heartbeat IPC: 3.974 cumulative IPC: 3.975 (Simulation time: 00 hr 02 min 19 sec)
Warmup finished CPU 0 instructions: 25000000 cycles: 6288961 cumulative IPC: 3.975 (Simulation time: 00 hr 02 min 56 sec)
Warmup complete CPU 0 instructions: 25000000 cycles: 6288961 cumulative IPC: 3.975 (Simulation time: 00 hr 02 min 56 sec)
Heartbeat CPU 0 instructions: 30000002 cycles: 23325141 heartbeat IPC: 0.5466 cumulative IPC: 0.2935 (Simulation time: 00 hr 05 min 32 sec)
Heartbeat CPU 0 instructions: 40000002 cycles: 57220530 heartbeat IPC: 0.295 cumulative IPC: 0.2945 (Simulation time: 00 hr 10 min 22 sec)
Heartbeat CPU 0 instructions: 50000001 cycles: 85997105 heartbeat IPC: 0.3475 cumulative IPC: 0.3136 (Simulation time: 00 hr 14 min 31 sec)
Simulation finished CPU 0 instructions: 25000001 cycles: 79708145 cumulative IPC: 0.3136 (Simulation time: 00 hr 14 min 31 sec)
Simulation complete CPU 0 instructions: 25000001 cycles: 79708145 cumulative IPC: 0.3136 (Simulation time: 00 hr 14 min 31 sec)

ChampSim completed all CPUs

=== Simulation ===
CPU 0 runs ./traces/omnetpp_340B.trace.xz
Region of Interest Statistics

CPU 0 cumulative IPC: 0.3136 instructions: 25000001 cycles: 79708145
CPU 0 Branch Prediction Accuracy: 92.7% MPKI: 17.4 Average ROB Occupancy at Mispredict: 50.67
Branch type MPKI
BRANCH_DIRECT_JUMP: 0.00016
BRANCH_INDIRECT: 0.0548
BRANCH_CONDITIONAL: 17.3
BRANCH_DIRECT_CALL: 4e-05
BRANCH_INDIRECT_CALL: 0.063
BRANCH_RETURN: 0.0296

LLC TOTAL        ACCESS:    1124840 HIT:     430299 MISS:     694541
LLC LOAD         ACCESS:     376740 HIT:     104814 MISS:     271926
LLC RFO          ACCESS:      56188 HIT:      12498 MISS:      43690
LLC PREFETCH     ACCESS:     374604 HIT:      74393 MISS:     300211
LLC WRITE        ACCESS:     237157 HIT:     212489 MISS:      24668
LLC TRANSLATION  ACCESS:      80151 HIT:      26105 MISS:      54046
LLC PREFETCH REQUESTED:          0 ISSUED:          0 USEFUL:          0 USELESS:          0
LLC AVERAGE MISS LATENCY: 418.3 cycles
cpu0_DTLB TOTAL        ACCESS:    7698560 HIT:    7056024 MISS:     642536
cpu0_DTLB LOAD         ACCESS:    7698560 HIT:    7056024 MISS:     642536
cpu0_DTLB RFO          ACCESS:          0 HIT:          0 MISS:          0
cpu0_DTLB PREFETCH     ACCESS:          0 HIT:          0 MISS:          0
cpu0_DTLB WRITE        ACCESS:          0 HIT:          0 MISS:          0
cpu0_DTLB TRANSLATION  ACCESS:          0 HIT:          0 MISS:          0
cpu0_DTLB PREFETCH REQUESTED:          0 ISSUED:          0 USEFUL:          0 USELESS:          0
cpu0_DTLB AVERAGE MISS LATENCY: 47.22 cycles
cpu0_ITLB TOTAL        ACCESS:    1067576 HIT:    1065604 MISS:       1972
cpu0_ITLB LOAD         ACCESS:    1067576 HIT:    1065604 MISS:       1972
cpu0_ITLB RFO          ACCESS:          0 HIT:          0 MISS:          0
cpu0_ITLB PREFETCH     ACCESS:          0 HIT:          0 MISS:          0
cpu0_ITLB WRITE        ACCESS:          0 HIT:          0 MISS:          0
cpu0_ITLB TRANSLATION  ACCESS:          0 HIT:          0 MISS:          0
cpu0_ITLB PREFETCH REQUESTED:          0 ISSUED:          0 USEFUL:          0 USELESS:          0
cpu0_ITLB AVERAGE MISS LATENCY: 33.9 cycles
cpu0_L1D TOTAL        ACCESS:   14012804 HIT:   11825803 MISS:    2187001
cpu0_L1D LOAD         ACCESS:    5084239 HIT:    4235910 MISS:     848329
cpu0_L1D RFO          ACCESS:          0 HIT:          0 MISS:          0
cpu0_L1D PREFETCH     ACCESS:    4553940 HIT:    3640783 MISS:     913157
cpu0_L1D WRITE        ACCESS:    4255992 HIT:    3942683 MISS:     313309
cpu0_L1D TRANSLATION  ACCESS:     118633 HIT:       6427 MISS:     112206
cpu0_L1D PREFETCH REQUESTED:    5387804 ISSUED:    4553933 USEFUL:     131422 USELESS:     342031
cpu0_L1D AVERAGE MISS LATENCY: 135.8 cycles
cpu0_L1I TOTAL        ACCESS:    1148808 HIT:    1146091 MISS:       2717
cpu0_L1I LOAD         ACCESS:    1148808 HIT:    1146091 MISS:       2717
cpu0_L1I RFO          ACCESS:          0 HIT:          0 MISS:          0
cpu0_L1I PREFETCH     ACCESS:          0 HIT:          0 MISS:          0
cpu0_L1I WRITE        ACCESS:          0 HIT:          0 MISS:          0
cpu0_L1I TRANSLATION  ACCESS:          0 HIT:          0 MISS:          0
cpu0_L1I PREFETCH REQUESTED:          0 ISSUED:          0 USEFUL:          0 USELESS:          0
cpu0_L1I AVERAGE MISS LATENCY: 79.91 cycles
cpu0_L2C TOTAL        ACCESS:    1493725 HIT:     603111 MISS:     890614
cpu0_L2C LOAD         ACCESS:     515720 HIT:     138519 MISS:     377201
cpu0_L2C RFO          ACCESS:      71304 HIT:      15116 MISS:      56188
cpu0_L2C PREFETCH     ACCESS:     494281 HIT:     118988 MISS:     375293
cpu0_L2C WRITE        ACCESS:     300539 HIT:     298758 MISS:       1781
cpu0_L2C TRANSLATION  ACCESS:     111881 HIT:      31730 MISS:      80151
cpu0_L2C PREFETCH REQUESTED:      20785 ISSUED:      20785 USEFUL:       3896 USELESS:      12791
cpu0_L2C AVERAGE MISS LATENCY: 346.1 cycles
cpu0_STLB TOTAL        ACCESS:     455686 HIT:     341929 MISS:     113757
cpu0_STLB LOAD         ACCESS:     455686 HIT:     341929 MISS:     113757
cpu0_STLB RFO          ACCESS:          0 HIT:          0 MISS:          0
cpu0_STLB PREFETCH     ACCESS:          0 HIT:          0 MISS:          0
cpu0_STLB WRITE        ACCESS:          0 HIT:          0 MISS:          0
cpu0_STLB TRANSLATION  ACCESS:          0 HIT:          0 MISS:          0
cpu0_STLB PREFETCH REQUESTED:          0 ISSUED:          0 USEFUL:          0 USELESS:          0
cpu0_STLB AVERAGE MISS LATENCY: 246.9 cycles

DRAM Statistics

Channel 0 RQ ROW_BUFFER_HIT:     103242
  ROW_BUFFER_MISS:     566422
 AVG DBUS CONGESTED CYCLE: 3.936
WQ ROW_BUFFER_HIT: Channel 0 
  ROW_BUFFER_MISS:       1296
  FULL:     178472
