WARNING: physical memory size is smaller than virtual memory size.

*** ChampSim Multicore Out-of-Order Simulator ***
Warmup Instructions: 25000000
Simulation Instructions: 25000000
Number of CPUs: 1
Page size: 4096

Off-chip DRAM Size: 4 GiB Channels: 1 Width: 64-bit Data Race: 800 MT/s
Heartbeat CPU 0 instructions: 10000000 cycles: 2549387 heartbeat IPC: 3.923 cumulative IPC: 3.923 (Simulation time: 00 hr 00 min 44 sec)
Heartbeat CPU 0 instructions: 20000002 cycles: 5100952 heartbeat IPC: 3.919 cumulative IPC: 3.921 (Simulation time: 00 hr 01 min 27 sec)
Warmup finished CPU 0 instructions: 25000001 cycles: 6387931 cumulative IPC: 3.914 (Simulation time: 00 hr 01 min 48 sec)
Warmup complete CPU 0 instructions: 25000001 cycles: 6387931 cumulative IPC: 3.914 (Simulation time: 00 hr 01 min 48 sec)
Heartbeat CPU 0 instructions: 30000003 cycles: 8321859 heartbeat IPC: 3.105 cumulative IPC: 2.585 (Simulation time: 00 hr 02 min 25 sec)
Heartbeat CPU 0 instructions: 40000001 cycles: 12085265 heartbeat IPC: 2.657 cumulative IPC: 2.633 (Simulation time: 00 hr 03 min 30 sec)
Heartbeat CPU 0 instructions: 50000002 cycles: 15820192 heartbeat IPC: 2.677 cumulative IPC: 2.65 (Simulation time: 00 hr 04 min 34 sec)
Simulation finished CPU 0 instructions: 25000001 cycles: 9432262 cumulative IPC: 2.65 (Simulation time: 00 hr 04 min 34 sec)
Simulation complete CPU 0 instructions: 25000001 cycles: 9432262 cumulative IPC: 2.65 (Simulation time: 00 hr 04 min 34 sec)

ChampSim completed all CPUs

=== Simulation ===
CPU 0 runs ./traces/sphinx3_2520B.trace.xz
Region of Interest Statistics

CPU 0 cumulative IPC: 2.65 instructions: 25000001 cycles: 9432262
CPU 0 Branch Prediction Accuracy: 96.09% MPKI: 3.369 Average ROB Occupancy at Mispredict: 224.4
Branch type MPKI
BRANCH_DIRECT_JUMP: 0.0225
BRANCH_INDIRECT: 0
BRANCH_CONDITIONAL: 3.32
BRANCH_DIRECT_CALL: 0
BRANCH_INDIRECT_CALL: 0
BRANCH_RETURN: 0.0303

LLC TOTAL        ACCESS:     358165 HIT:     297725 MISS:      60440
LLC LOAD         ACCESS:      49012 HIT:      43975 MISS:       5037
LLC RFO          ACCESS:      30278 HIT:      30202 MISS:         76
LLC PREFETCH     ACCESS:     245030 HIT:     189810 MISS:      55220
LLC WRITE        ACCESS:      33751 HIT:      33736 MISS:         15
LLC TRANSLATION  ACCESS:         94 HIT:          2 MISS:         92
LLC PREFETCH REQUESTED:          0 ISSUED:          0 USEFUL:          0 USELESS:          0
LLC AVERAGE MISS LATENCY: 199.4 cycles
cpu0_DTLB TOTAL        ACCESS:    4737306 HIT:    4713521 MISS:      23785
cpu0_DTLB LOAD         ACCESS:    4737306 HIT:    4713521 MISS:      23785
cpu0_DTLB RFO          ACCESS:          0 HIT:          0 MISS:          0
cpu0_DTLB PREFETCH     ACCESS:          0 HIT:          0 MISS:          0
cpu0_DTLB WRITE        ACCESS:          0 HIT:          0 MISS:          0
cpu0_DTLB TRANSLATION  ACCESS:          0 HIT:          0 MISS:          0
cpu0_DTLB PREFETCH REQUESTED:          0 ISSUED:          0 USEFUL:          0 USELESS:          0
cpu0_DTLB AVERAGE MISS LATENCY: 5.474 cycles
cpu0_ITLB TOTAL        ACCESS:       2981 HIT:       2973 MISS:          8
cpu0_ITLB LOAD         ACCESS:       2981 HIT:       2973 MISS:          8
cpu0_ITLB RFO          ACCESS:          0 HIT:          0 MISS:          0
cpu0_ITLB PREFETCH     ACCESS:          0 HIT:          0 MISS:          0
cpu0_ITLB WRITE        ACCESS:          0 HIT:          0 MISS:          0
cpu0_ITLB TRANSLATION  ACCESS:          0 HIT:          0 MISS:          0
cpu0_ITLB PREFETCH REQUESTED:          0 ISSUED:          0 USEFUL:          0 USELESS:          0
cpu0_ITLB AVERAGE MISS LATENCY: 25.25 cycles
cpu0_L1D TOTAL        ACCESS:    8789234 HIT:    6608651 MISS:    2180583
cpu0_L1D LOAD         ACCESS:    5396602 HIT:    4376905 MISS:    1019697
cpu0_L1D RFO          ACCESS:          0 HIT:          0 MISS:          0
cpu0_L1D PREFETCH     ACCESS:    3085251 HIT:    2035701 MISS:    1049550
cpu0_L1D WRITE        ACCESS:     307276 HIT:     196037 MISS:     111239
cpu0_L1D TRANSLATION  ACCESS:        105 HIT:          8 MISS:         97
cpu0_L1D PREFETCH REQUESTED:    5419865 ISSUED:    3085250 USEFUL:     249267 USELESS:       9841
cpu0_L1D AVERAGE MISS LATENCY: 5.76 cycles
cpu0_L1I TOTAL        ACCESS:       3372 HIT:       3285 MISS:         87
cpu0_L1I LOAD         ACCESS:       3372 HIT:       3285 MISS:         87
cpu0_L1I RFO          ACCESS:          0 HIT:          0 MISS:          0
cpu0_L1I PREFETCH     ACCESS:          0 HIT:          0 MISS:          0
cpu0_L1I WRITE        ACCESS:          0 HIT:          0 MISS:          0
cpu0_L1I TRANSLATION  ACCESS:          0 HIT:          0 MISS:          0
cpu0_L1I PREFETCH REQUESTED:          0 ISSUED:          0 USEFUL:          0 USELESS:          0
cpu0_L1I AVERAGE MISS LATENCY: 210 cycles
cpu0_L2C TOTAL        ACCESS:     471444 HIT:     142910 MISS:     328534
cpu0_L2C LOAD         ACCESS:      63221 HIT:      13645 MISS:      49576
cpu0_L2C RFO          ACCESS:      30774 HIT:        496 MISS:      30278
cpu0_L2C PREFETCH     ACCESS:     344930 HIT:      96443 MISS:     248487
cpu0_L2C WRITE        ACCESS:      32424 HIT:      32325 MISS:         99
cpu0_L2C TRANSLATION  ACCESS:         95 HIT:          1 MISS:         94
cpu0_L2C PREFETCH REQUESTED:      85821 ISSUED:      85821 USEFUL:      18424 USELESS:       3396
cpu0_L2C AVERAGE MISS LATENCY: 56.38 cycles
cpu0_STLB TOTAL        ACCESS:      12578 HIT:      12473 MISS:        105
cpu0_STLB LOAD         ACCESS:      12578 HIT:      12473 MISS:        105
cpu0_STLB RFO          ACCESS:          0 HIT:          0 MISS:          0
cpu0_STLB PREFETCH     ACCESS:          0 HIT:          0 MISS:          0
cpu0_STLB WRITE        ACCESS:          0 HIT:          0 MISS:          0
cpu0_STLB TRANSLATION  ACCESS:          0 HIT:          0 MISS:          0
cpu0_STLB PREFETCH REQUESTED:          0 ISSUED:          0 USEFUL:          0 USELESS:          0
cpu0_STLB AVERAGE MISS LATENCY: 818 cycles

DRAM Statistics

Channel 0 RQ ROW_BUFFER_HIT:      40700
  ROW_BUFFER_MISS:      19721
 AVG DBUS CONGESTED CYCLE: 3.685
WQ ROW_BUFFER_HIT: Channel 0 
  ROW_BUFFER_MISS:        353
  FULL:        501
