WARNING: physical memory size is smaller than virtual memory size.

*** ChampSim Multicore Out-of-Order Simulator ***
Warmup Instructions: 25000000
Simulation Instructions: 25000000
Number of CPUs: 1
Page size: 4096

Off-chip DRAM Size: 4 GiB Channels: 1 Width: 64-bit Data Race: 800 MT/s
Heartbeat CPU 0 instructions: 10000002 cycles: 2561006 heartbeat IPC: 3.905 cumulative IPC: 3.905 (Simulation time: 00 hr 00 min 55 sec)
Heartbeat CPU 0 instructions: 20000002 cycles: 5061006 heartbeat IPC: 4 cumulative IPC: 3.952 (Simulation time: 00 hr 01 min 44 sec)
Warmup finished CPU 0 instructions: 25000001 cycles: 6311031 cumulative IPC: 3.961 (Simulation time: 00 hr 02 min 07 sec)
Warmup complete CPU 0 instructions: 25000001 cycles: 6311031 cumulative IPC: 3.961 (Simulation time: 00 hr 02 min 07 sec)
Heartbeat CPU 0 instructions: 30000001 cycles: 16076377 heartbeat IPC: 0.9078 cumulative IPC: 0.512 (Simulation time: 00 hr 03 min 52 sec)
Heartbeat CPU 0 instructions: 40000003 cycles: 36059105 heartbeat IPC: 0.5004 cumulative IPC: 0.5042 (Simulation time: 00 hr 07 min 24 sec)
Heartbeat CPU 0 instructions: 50000000 cycles: 42307975 heartbeat IPC: 1.6 cumulative IPC: 0.6945 (Simulation time: 00 hr 08 min 33 sec)
Simulation finished CPU 0 instructions: 25000003 cycles: 35996946 cumulative IPC: 0.6945 (Simulation time: 00 hr 08 min 33 sec)
Simulation complete CPU 0 instructions: 25000003 cycles: 35996946 cumulative IPC: 0.6945 (Simulation time: 00 hr 08 min 33 sec)

ChampSim completed all CPUs

=== Simulation ===
CPU 0 runs ./traces/wrf_1228B.trace.xz
Region of Interest Statistics

CPU 0 cumulative IPC: 0.6945 instructions: 25000003 cycles: 35996946
CPU 0 Branch Prediction Accuracy: 94.36% MPKI: 2.773 Average ROB Occupancy at Mispredict: 284.5
Branch type MPKI
BRANCH_DIRECT_JUMP: 0.00028
BRANCH_INDIRECT: 0
BRANCH_CONDITIONAL: 2.77
BRANCH_DIRECT_CALL: 0.00032
BRANCH_INDIRECT_CALL: 0
BRANCH_RETURN: 0.0004

LLC TOTAL        ACCESS:     695736 HIT:     187071 MISS:     508665
LLC LOAD         ACCESS:      89965 HIT:      28438 MISS:      61527
LLC RFO          ACCESS:     114991 HIT:       2153 MISS:     112838
LLC PREFETCH     ACCESS:     279445 HIT:      71904 MISS:     207541
LLC WRITE        ACCESS:     211055 HIT:      84522 MISS:     126533
LLC TRANSLATION  ACCESS:        280 HIT:         54 MISS:        226
LLC PREFETCH REQUESTED:          0 ISSUED:          0 USEFUL:          0 USELESS:          0
LLC AVERAGE MISS LATENCY: 660.9 cycles
cpu0_DTLB TOTAL        ACCESS:    6265028 HIT:    6228977 MISS:      36051
cpu0_DTLB LOAD         ACCESS:    6265028 HIT:    6228977 MISS:      36051
cpu0_DTLB RFO          ACCESS:          0 HIT:          0 MISS:          0
cpu0_DTLB PREFETCH     ACCESS:          0 HIT:          0 MISS:          0
cpu0_DTLB WRITE        ACCESS:          0 HIT:          0 MISS:          0
cpu0_DTLB TRANSLATION  ACCESS:          0 HIT:          0 MISS:          0
cpu0_DTLB PREFETCH REQUESTED:          0 ISSUED:          0 USEFUL:          0 USELESS:          0
cpu0_DTLB AVERAGE MISS LATENCY: 15.2 cycles
cpu0_ITLB TOTAL        ACCESS:       4543 HIT:       4535 MISS:          8
cpu0_ITLB LOAD         ACCESS:       4543 HIT:       4535 MISS:          8
cpu0_ITLB RFO          ACCESS:          0 HIT:          0 MISS:          0
cpu0_ITLB PREFETCH     ACCESS:          0 HIT:          0 MISS:          0
cpu0_ITLB WRITE        ACCESS:          0 HIT:          0 MISS:          0
cpu0_ITLB TRANSLATION  ACCESS:          0 HIT:          0 MISS:          0
cpu0_ITLB PREFETCH REQUESTED:          0 ISSUED:          0 USEFUL:          0 USELESS:          0
cpu0_ITLB AVERAGE MISS LATENCY: 83.88 cycles
cpu0_L1D TOTAL        ACCESS:   11393199 HIT:    7285036 MISS:    4108163
cpu0_L1D LOAD         ACCESS:    6389280 HIT:    4436490 MISS:    1952790
cpu0_L1D RFO          ACCESS:          0 HIT:          0 MISS:          0
cpu0_L1D PREFETCH     ACCESS:    3160156 HIT:    1772427 MISS:    1387729
cpu0_L1D WRITE        ACCESS:    1839395 HIT:    1073678 MISS:     765717
cpu0_L1D TRANSLATION  ACCESS:       4368 HIT:       2441 MISS:       1927
cpu0_L1D PREFETCH REQUESTED:    6968421 ISSUED:    3160147 USEFUL:     363050 USELESS:       9637
cpu0_L1D AVERAGE MISS LATENCY: 66.7 cycles
cpu0_L1I TOTAL        ACCESS:       5093 HIT:       4441 MISS:        652
cpu0_L1I LOAD         ACCESS:       5093 HIT:       4441 MISS:        652
cpu0_L1I RFO          ACCESS:          0 HIT:          0 MISS:          0
cpu0_L1I PREFETCH     ACCESS:          0 HIT:          0 MISS:          0
cpu0_L1I WRITE        ACCESS:          0 HIT:          0 MISS:          0
cpu0_L1I TRANSLATION  ACCESS:          0 HIT:          0 MISS:          0
cpu0_L1I PREFETCH REQUESTED:          0 ISSUED:          0 USEFUL:          0 USELESS:          0
cpu0_L1I AVERAGE MISS LATENCY: 462.9 cycles
cpu0_L2C TOTAL        ACCESS:    1250647 HIT:     675685 MISS:     574962
cpu0_L2C LOAD         ACCESS:     226223 HIT:     114285 MISS:     111938
cpu0_L2C RFO          ACCESS:     160815 HIT:      45824 MISS:     114991
cpu0_L2C PREFETCH     ACCESS:     585190 HIT:     237481 MISS:     347709
cpu0_L2C WRITE        ACCESS:     276493 HIT:     276449 MISS:         44
cpu0_L2C TRANSLATION  ACCESS:       1926 HIT:       1646 MISS:        280
cpu0_L2C PREFETCH REQUESTED:     212503 ISSUED:     212503 USEFUL:      61332 USELESS:      13605
cpu0_L2C AVERAGE MISS LATENCY: 594.1 cycles
cpu0_STLB TOTAL        ACCESS:       8010 HIT:       3648 MISS:       4362
cpu0_STLB LOAD         ACCESS:       8010 HIT:       3648 MISS:       4362
cpu0_STLB RFO          ACCESS:          0 HIT:          0 MISS:          0
cpu0_STLB PREFETCH     ACCESS:          0 HIT:          0 MISS:          0
cpu0_STLB WRITE        ACCESS:          0 HIT:          0 MISS:          0
cpu0_STLB TRANSLATION  ACCESS:          0 HIT:          0 MISS:          0
cpu0_STLB PREFETCH REQUESTED:          0 ISSUED:          0 USEFUL:          0 USELESS:          0
cpu0_STLB AVERAGE MISS LATENCY: 194.9 cycles

DRAM Statistics

Channel 0 RQ ROW_BUFFER_HIT:      93790
  ROW_BUFFER_MISS:     282447
 AVG DBUS CONGESTED CYCLE: 3.919
WQ ROW_BUFFER_HIT: Channel 0 
  ROW_BUFFER_MISS:      21047
  FULL:     141794
