WARNING: physical memory size is smaller than virtual memory size.

*** ChampSim Multicore Out-of-Order Simulator ***
Warmup Instructions: 25000000
Simulation Instructions: 25000000
Number of CPUs: 1
Page size: 4096

Off-chip DRAM Size: 4 GiB Channels: 1 Width: 64-bit Data Race: 800 MT/s
Heartbeat CPU 0 instructions: 10000001 cycles: 2516680 heartbeat IPC: 3.973 cumulative IPC: 3.973 (Simulation time: 00 hr 00 min 49 sec)
Heartbeat CPU 0 instructions: 20000001 cycles: 5148738 heartbeat IPC: 3.799 cumulative IPC: 3.884 (Simulation time: 00 hr 01 min 39 sec)
Warmup finished CPU 0 instructions: 25000001 cycles: 6553166 cumulative IPC: 3.815 (Simulation time: 00 hr 02 min 05 sec)
Warmup complete CPU 0 instructions: 25000001 cycles: 6553166 cumulative IPC: 3.815 (Simulation time: 00 hr 02 min 05 sec)
Heartbeat CPU 0 instructions: 30000003 cycles: 9921436 heartbeat IPC: 2.095 cumulative IPC: 1.484 (Simulation time: 00 hr 02 min 52 sec)
Heartbeat CPU 0 instructions: 40000001 cycles: 16599935 heartbeat IPC: 1.497 cumulative IPC: 1.493 (Simulation time: 00 hr 04 min 21 sec)
Heartbeat CPU 0 instructions: 50000000 cycles: 23257073 heartbeat IPC: 1.502 cumulative IPC: 1.497 (Simulation time: 00 hr 05 min 40 sec)
Simulation finished CPU 0 instructions: 25000003 cycles: 16703909 cumulative IPC: 1.497 (Simulation time: 00 hr 05 min 40 sec)
Simulation complete CPU 0 instructions: 25000003 cycles: 16703909 cumulative IPC: 1.497 (Simulation time: 00 hr 05 min 40 sec)

ChampSim completed all CPUs

=== Simulation ===
CPU 0 runs ./traces/zeusmp_100B.trace.xz
Region of Interest Statistics

CPU 0 cumulative IPC: 1.497 instructions: 25000003 cycles: 16703909
CPU 0 Branch Prediction Accuracy: 99.35% MPKI: 0.3559 Average ROB Occupancy at Mispredict: 286.2
Branch type MPKI
BRANCH_DIRECT_JUMP: 0
BRANCH_INDIRECT: 0
BRANCH_CONDITIONAL: 0.356
BRANCH_DIRECT_CALL: 0
BRANCH_INDIRECT_CALL: 0
BRANCH_RETURN: 0

LLC TOTAL        ACCESS:     204857 HIT:      76546 MISS:     128311
LLC LOAD         ACCESS:      41791 HIT:      10732 MISS:      31059
LLC RFO          ACCESS:      49536 HIT:          0 MISS:      49536
LLC PREFETCH     ACCESS:      61108 HIT:      15057 MISS:      46051
LLC WRITE        ACCESS:      49591 HIT:      49591 MISS:          0
LLC TRANSLATION  ACCESS:       2831 HIT:       1166 MISS:       1665
LLC PREFETCH REQUESTED:          0 ISSUED:          0 USEFUL:          0 USELESS:          0
LLC AVERAGE MISS LATENCY: 1048 cycles
cpu0_DTLB TOTAL        ACCESS:    4665238 HIT:    3530792 MISS:    1134446
cpu0_DTLB LOAD         ACCESS:    4665238 HIT:    3530792 MISS:    1134446
cpu0_DTLB RFO          ACCESS:          0 HIT:          0 MISS:          0
cpu0_DTLB PREFETCH     ACCESS:          0 HIT:          0 MISS:          0
cpu0_DTLB WRITE        ACCESS:          0 HIT:          0 MISS:          0
cpu0_DTLB TRANSLATION  ACCESS:          0 HIT:          0 MISS:          0
cpu0_DTLB PREFETCH REQUESTED:          0 ISSUED:          0 USEFUL:          0 USELESS:          0
cpu0_DTLB AVERAGE MISS LATENCY: 9.737 cycles
cpu0_ITLB TOTAL        ACCESS:          0 HIT:          0 MISS:          0
cpu0_ITLB LOAD         ACCESS:          0 HIT:          0 MISS:          0
cpu0_ITLB RFO          ACCESS:          0 HIT:          0 MISS:          0
cpu0_ITLB PREFETCH     ACCESS:          0 HIT:          0 MISS:          0
cpu0_ITLB WRITE        ACCESS:          0 HIT:          0 MISS:          0
cpu0_ITLB TRANSLATION  ACCESS:          0 HIT:          0 MISS:          0
cpu0_ITLB PREFETCH REQUESTED:          0 ISSUED:          0 USEFUL:          0 USELESS:          0
cpu0_ITLB AVERAGE MISS LATENCY: -nan cycles
cpu0_L1D TOTAL        ACCESS:    7309996 HIT:    5399009 MISS:    1910987
cpu0_L1D LOAD         ACCESS:    3756181 HIT:    2888428 MISS:     867753
cpu0_L1D RFO          ACCESS:          0 HIT:          0 MISS:          0
cpu0_L1D PREFETCH     ACCESS:    1786979 HIT:    1443476 MISS:     343503
cpu0_L1D WRITE        ACCESS:    1763656 HIT:    1067105 MISS:     696551
cpu0_L1D TRANSLATION  ACCESS:       3180 HIT:          0 MISS:       3180
cpu0_L1D PREFETCH REQUESTED:    6167261 ISSUED:    1786979 USEFUL:      61365 USELESS:     213636
cpu0_L1D AVERAGE MISS LATENCY: 81.55 cycles
cpu0_L1I TOTAL        ACCESS:          0 HIT:          0 MISS:          0
cpu0_L1I LOAD         ACCESS:          0 HIT:          0 MISS:          0
cpu0_L1I RFO          ACCESS:          0 HIT:          0 MISS:          0
cpu0_L1I PREFETCH     ACCESS:          0 HIT:          0 MISS:          0
cpu0_L1I WRITE        ACCESS:          0 HIT:          0 MISS:          0
cpu0_L1I TRANSLATION  ACCESS:          0 HIT:          0 MISS:          0
cpu0_L1I PREFETCH REQUESTED:          0 ISSUED:          0 USEFUL:          0 USELESS:          0
cpu0_L1I AVERAGE MISS LATENCY: -nan cycles
cpu0_L2C TOTAL        ACCESS:    2317919 HIT:    2162651 MISS:     155268
cpu0_L2C LOAD         ACCESS:     845835 HIT:     804044 MISS:      41791
cpu0_L2C RFO          ACCESS:     545404 HIT:     495868 MISS:      49536
cpu0_L2C PREFETCH     ACCESS:     357914 HIT:     296804 MISS:      61110
cpu0_L2C WRITE        ACCESS:     565586 HIT:     565586 MISS:          0
cpu0_L2C TRANSLATION  ACCESS:       3180 HIT:        349 MISS:       2831
cpu0_L2C PREFETCH REQUESTED:      83029 ISSUED:      82843 USEFUL:          0 USELESS:        133
cpu0_L2C AVERAGE MISS LATENCY: 886.6 cycles
cpu0_STLB TOTAL        ACCESS:    1051377 HIT:    1049415 MISS:       1962
cpu0_STLB LOAD         ACCESS:    1051377 HIT:    1049415 MISS:       1962
cpu0_STLB RFO          ACCESS:          0 HIT:          0 MISS:          0
cpu0_STLB PREFETCH     ACCESS:          0 HIT:          0 MISS:          0
cpu0_STLB WRITE        ACCESS:          0 HIT:          0 MISS:          0
cpu0_STLB TRANSLATION  ACCESS:          0 HIT:          0 MISS:          0
cpu0_STLB PREFETCH REQUESTED:          0 ISSUED:          0 USEFUL:          0 USELESS:          0
cpu0_STLB AVERAGE MISS LATENCY: 1447 cycles

DRAM Statistics

Channel 0 RQ ROW_BUFFER_HIT:      24448
  ROW_BUFFER_MISS:     103855
 AVG DBUS CONGESTED CYCLE: 3.991
WQ ROW_BUFFER_HIT: Channel 0 
  ROW_BUFFER_MISS:        769
  FULL:      50435
