WARNING: physical memory size is smaller than virtual memory size.

*** ChampSim Multicore Out-of-Order Simulator ***
Warmup Instructions: 25000000
Simulation Instructions: 25000000
Number of CPUs: 1
Page size: 4096

Off-chip DRAM Size: 4 GiB Channels: 1 Width: 64-bit Data Race: 800 MT/s
Heartbeat CPU 0 instructions: 10000001 cycles: 2536642 heartbeat IPC: 3.942 cumulative IPC: 3.942 (Simulation time: 00 hr 00 min 50 sec)
Heartbeat CPU 0 instructions: 20000000 cycles: 5079323 heartbeat IPC: 3.933 cumulative IPC: 3.938 (Simulation time: 00 hr 01 min 36 sec)
Warmup finished CPU 0 instructions: 25000003 cycles: 6355129 cumulative IPC: 3.934 (Simulation time: 00 hr 01 min 57 sec)
Warmup complete CPU 0 instructions: 25000003 cycles: 6355129 cumulative IPC: 3.934 (Simulation time: 00 hr 01 min 57 sec)
Heartbeat CPU 0 instructions: 30000003 cycles: 8120255 heartbeat IPC: 3.288 cumulative IPC: 2.833 (Simulation time: 00 hr 02 min 25 sec)
Heartbeat CPU 0 instructions: 40000000 cycles: 11678462 heartbeat IPC: 2.81 cumulative IPC: 2.818 (Simulation time: 00 hr 03 min 18 sec)
Heartbeat CPU 0 instructions: 50000000 cycles: 15265211 heartbeat IPC: 2.788 cumulative IPC: 2.806 (Simulation time: 00 hr 04 min 07 sec)
Simulation finished CPU 0 instructions: 25000003 cycles: 8910086 cumulative IPC: 2.806 (Simulation time: 00 hr 04 min 07 sec)
Simulation complete CPU 0 instructions: 25000003 cycles: 8910086 cumulative IPC: 2.806 (Simulation time: 00 hr 04 min 07 sec)

ChampSim completed all CPUs

=== Simulation ===
CPU 0 runs ./traces/zeusmp_600B.trace.xz
Region of Interest Statistics

CPU 0 cumulative IPC: 2.806 instructions: 25000003 cycles: 8910086
CPU 0 Branch Prediction Accuracy: 97.56% MPKI: 0.8748 Average ROB Occupancy at Mispredict: 196.6
Branch type MPKI
BRANCH_DIRECT_JUMP: 0
BRANCH_INDIRECT: 0
BRANCH_CONDITIONAL: 0.875
BRANCH_DIRECT_CALL: 0
BRANCH_INDIRECT_CALL: 0
BRANCH_RETURN: 0

LLC TOTAL        ACCESS:      95500 HIT:      10260 MISS:      85240
LLC LOAD         ACCESS:      12636 HIT:        104 MISS:      12532
LLC RFO          ACCESS:          0 HIT:          0 MISS:          0
LLC PREFETCH     ACCESS:      66992 HIT:        520 MISS:      66472
LLC WRITE        ACCESS:      15821 HIT:       9633 MISS:       6188
LLC TRANSLATION  ACCESS:         51 HIT:          3 MISS:         48
LLC PREFETCH REQUESTED:          0 ISSUED:          0 USEFUL:          0 USELESS:          0
LLC AVERAGE MISS LATENCY: 267.7 cycles
cpu0_DTLB TOTAL        ACCESS:    4592687 HIT:    4577763 MISS:      14924
cpu0_DTLB LOAD         ACCESS:    4592687 HIT:    4577763 MISS:      14924
cpu0_DTLB RFO          ACCESS:          0 HIT:          0 MISS:          0
cpu0_DTLB PREFETCH     ACCESS:          0 HIT:          0 MISS:          0
cpu0_DTLB WRITE        ACCESS:          0 HIT:          0 MISS:          0
cpu0_DTLB TRANSLATION  ACCESS:          0 HIT:          0 MISS:          0
cpu0_DTLB PREFETCH REQUESTED:          0 ISSUED:          0 USEFUL:          0 USELESS:          0
cpu0_DTLB AVERAGE MISS LATENCY: 8.677 cycles
cpu0_ITLB TOTAL        ACCESS:     149794 HIT:     149794 MISS:          0
cpu0_ITLB LOAD         ACCESS:     149794 HIT:     149794 MISS:          0
cpu0_ITLB RFO          ACCESS:          0 HIT:          0 MISS:          0
cpu0_ITLB PREFETCH     ACCESS:          0 HIT:          0 MISS:          0
cpu0_ITLB WRITE        ACCESS:          0 HIT:          0 MISS:          0
cpu0_ITLB TRANSLATION  ACCESS:          0 HIT:          0 MISS:          0
cpu0_ITLB PREFETCH REQUESTED:          0 ISSUED:          0 USEFUL:          0 USELESS:          0
cpu0_ITLB AVERAGE MISS LATENCY: -nan cycles
cpu0_L1D TOTAL        ACCESS:    8443854 HIT:    7674775 MISS:     769079
cpu0_L1D LOAD         ACCESS:    3933905 HIT:    3531145 MISS:     402760
cpu0_L1D RFO          ACCESS:          0 HIT:          0 MISS:          0
cpu0_L1D PREFETCH     ACCESS:    2705446 HIT:    2352262 MISS:     353184
cpu0_L1D WRITE        ACCESS:    1803292 HIT:    1791368 MISS:      11924
cpu0_L1D TRANSLATION  ACCESS:       1211 HIT:          0 MISS:       1211
cpu0_L1D PREFETCH REQUESTED:    3933905 ISSUED:    2705449 USEFUL:      73292 USELESS:       6292
cpu0_L1D AVERAGE MISS LATENCY: 18.87 cycles
cpu0_L1I TOTAL        ACCESS:     189053 HIT:     189053 MISS:          0
cpu0_L1I LOAD         ACCESS:     189053 HIT:     189053 MISS:          0
cpu0_L1I RFO          ACCESS:          0 HIT:          0 MISS:          0
cpu0_L1I PREFETCH     ACCESS:          0 HIT:          0 MISS:          0
cpu0_L1I WRITE        ACCESS:          0 HIT:          0 MISS:          0
cpu0_L1I TRANSLATION  ACCESS:          0 HIT:          0 MISS:          0
cpu0_L1I PREFETCH REQUESTED:          0 ISSUED:          0 USEFUL:          0 USELESS:          0
cpu0_L1I AVERAGE MISS LATENCY: -nan cycles
cpu0_L2C TOTAL        ACCESS:     281550 HIT:     138058 MISS:     143492
cpu0_L2C LOAD         ACCESS:      50865 HIT:      25809 MISS:      25056
cpu0_L2C RFO          ACCESS:       6147 HIT:       6147 MISS:          0
cpu0_L2C PREFETCH     ACCESS:     189813 HIT:      71451 MISS:     118362
cpu0_L2C WRITE        ACCESS:      33514 HIT:      33491 MISS:         23
cpu0_L2C TRANSLATION  ACCESS:       1211 HIT:       1160 MISS:         51
cpu0_L2C PREFETCH REQUESTED:     110225 ISSUED:     110225 USEFUL:      24990 USELESS:      11157
cpu0_L2C AVERAGE MISS LATENCY: 164.3 cycles
cpu0_STLB TOTAL        ACCESS:       1546 HIT:        336 MISS:       1210
cpu0_STLB LOAD         ACCESS:       1546 HIT:        336 MISS:       1210
cpu0_STLB RFO          ACCESS:          0 HIT:          0 MISS:          0
cpu0_STLB PREFETCH     ACCESS:          0 HIT:          0 MISS:          0
cpu0_STLB WRITE        ACCESS:          0 HIT:          0 MISS:          0
cpu0_STLB TRANSLATION  ACCESS:          0 HIT:          0 MISS:          0
cpu0_STLB PREFETCH REQUESTED:          0 ISSUED:          0 USEFUL:          0 USELESS:          0
cpu0_STLB AVERAGE MISS LATENCY: 216.7 cycles

DRAM Statistics

Channel 0 RQ ROW_BUFFER_HIT:      60563
  ROW_BUFFER_MISS:      18458
 AVG DBUS CONGESTED CYCLE: 3.938
WQ ROW_BUFFER_HIT: Channel 0 
  ROW_BUFFER_MISS:       1385
  FULL:      12858
