WARNING: physical memory size is smaller than virtual memory size.

*** ChampSim Multicore Out-of-Order Simulator ***
Warmup Instructions: 25000000
Simulation Instructions: 25000000
Number of CPUs: 1
Page size: 4096

Off-chip DRAM Size: 4 GiB Channels: 1 Width: 64-bit Data Race: 800 MT/s
Heartbeat CPU 0 instructions: 10000002 cycles: 2593471 heartbeat IPC: 3.856 cumulative IPC: 3.856 (Simulation time: 00 hr 00 min 47 sec)
Heartbeat CPU 0 instructions: 20000000 cycles: 5185158 heartbeat IPC: 3.858 cumulative IPC: 3.857 (Simulation time: 00 hr 01 min 35 sec)
Warmup finished CPU 0 instructions: 25000001 cycles: 6468841 cumulative IPC: 3.865 (Simulation time: 00 hr 02 min 06 sec)
Warmup complete CPU 0 instructions: 25000001 cycles: 6468841 cumulative IPC: 3.865 (Simulation time: 00 hr 02 min 06 sec)
Heartbeat CPU 0 instructions: 30000001 cycles: 8406229 heartbeat IPC: 3.105 cumulative IPC: 2.581 (Simulation time: 00 hr 02 min 37 sec)
Heartbeat CPU 0 instructions: 40000000 cycles: 12382101 heartbeat IPC: 2.515 cumulative IPC: 2.537 (Simulation time: 00 hr 03 min 38 sec)
Heartbeat CPU 0 instructions: 50000000 cycles: 16380800 heartbeat IPC: 2.501 cumulative IPC: 2.522 (Simulation time: 00 hr 04 min 37 sec)
Simulation finished CPU 0 instructions: 25000003 cycles: 9911961 cumulative IPC: 2.522 (Simulation time: 00 hr 04 min 37 sec)
Simulation complete CPU 0 instructions: 25000003 cycles: 9911961 cumulative IPC: 2.522 (Simulation time: 00 hr 04 min 37 sec)

ChampSim completed all CPUs

=== Simulation ===
CPU 0 runs ./traces/zeusmp_300B.trace.xz
Region of Interest Statistics

CPU 0 cumulative IPC: 2.522 instructions: 25000003 cycles: 9911961
CPU 0 Branch Prediction Accuracy: 98.82% MPKI: 0.461 Average ROB Occupancy at Mispredict: 210.5
Branch type MPKI
BRANCH_DIRECT_JUMP: 0.0227
BRANCH_INDIRECT: 0
BRANCH_CONDITIONAL: 0.438
BRANCH_DIRECT_CALL: 0
BRANCH_INDIRECT_CALL: 0
BRANCH_RETURN: 0

LLC TOTAL        ACCESS:     163125 HIT:      92047 MISS:      71078
LLC LOAD         ACCESS:      24912 HIT:       7627 MISS:      17285
LLC RFO          ACCESS:      38458 HIT:      19585 MISS:      18873
LLC PREFETCH     ACCESS:      58632 HIT:      24750 MISS:      33882
LLC WRITE        ACCESS:      39558 HIT:      39550 MISS:          8
LLC TRANSLATION  ACCESS:       1565 HIT:        535 MISS:       1030
LLC PREFETCH REQUESTED:          0 ISSUED:          0 USEFUL:          0 USELESS:          0
LLC AVERAGE MISS LATENCY: 551.2 cycles
cpu0_DTLB TOTAL        ACCESS:    4257182 HIT:    3944166 MISS:     313016
cpu0_DTLB LOAD         ACCESS:    4257182 HIT:    3944166 MISS:     313016
cpu0_DTLB RFO          ACCESS:          0 HIT:          0 MISS:          0
cpu0_DTLB PREFETCH     ACCESS:          0 HIT:          0 MISS:          0
cpu0_DTLB WRITE        ACCESS:          0 HIT:          0 MISS:          0
cpu0_DTLB TRANSLATION  ACCESS:          0 HIT:          0 MISS:          0
cpu0_DTLB PREFETCH REQUESTED:          0 ISSUED:          0 USEFUL:          0 USELESS:          0
cpu0_DTLB AVERAGE MISS LATENCY: 9.435 cycles
cpu0_ITLB TOTAL        ACCESS:      84898 HIT:      84898 MISS:          0
cpu0_ITLB LOAD         ACCESS:      84898 HIT:      84898 MISS:          0
cpu0_ITLB RFO          ACCESS:          0 HIT:          0 MISS:          0
cpu0_ITLB PREFETCH     ACCESS:          0 HIT:          0 MISS:          0
cpu0_ITLB WRITE        ACCESS:          0 HIT:          0 MISS:          0
cpu0_ITLB TRANSLATION  ACCESS:          0 HIT:          0 MISS:          0
cpu0_ITLB PREFETCH REQUESTED:          0 ISSUED:          0 USEFUL:          0 USELESS:          0
cpu0_ITLB AVERAGE MISS LATENCY: -nan cycles
cpu0_L1D TOTAL        ACCESS:    6880239 HIT:    5189396 MISS:    1690843
cpu0_L1D LOAD         ACCESS:    3178030 HIT:    2597370 MISS:     580660
cpu0_L1D RFO          ACCESS:          0 HIT:          0 MISS:          0
cpu0_L1D PREFETCH     ACCESS:    1553188 HIT:    1106735 MISS:     446453
cpu0_L1D WRITE        ACCESS:    2146989 HIT:    1485274 MISS:     661715
cpu0_L1D TRANSLATION  ACCESS:       2032 HIT:         17 MISS:       2015
cpu0_L1D PREFETCH REQUESTED:    3591400 ISSUED:    1553187 USEFUL:      71252 USELESS:     225931
cpu0_L1D AVERAGE MISS LATENCY: 27.66 cycles
cpu0_L1I TOTAL        ACCESS:     108874 HIT:     108874 MISS:          0
cpu0_L1I LOAD         ACCESS:     108874 HIT:     108874 MISS:          0
cpu0_L1I RFO          ACCESS:          0 HIT:          0 MISS:          0
cpu0_L1I PREFETCH     ACCESS:          0 HIT:          0 MISS:          0
cpu0_L1I WRITE        ACCESS:          0 HIT:          0 MISS:          0
cpu0_L1I TRANSLATION  ACCESS:          0 HIT:          0 MISS:          0
cpu0_L1I PREFETCH REQUESTED:          0 ISSUED:          0 USEFUL:          0 USELESS:          0
cpu0_L1I AVERAGE MISS LATENCY: -nan cycles
cpu0_L2C TOTAL        ACCESS:    1354836 HIT:    1208659 MISS:     146177
cpu0_L2C LOAD         ACCESS:     461529 HIT:     432756 MISS:      28773
cpu0_L2C RFO          ACCESS:     201246 HIT:     162788 MISS:      38458
cpu0_L2C PREFETCH     ACCESS:     425129 HIT:     347756 MISS:      77373
cpu0_L2C WRITE        ACCESS:     264918 HIT:     264910 MISS:          8
cpu0_L2C TRANSLATION  ACCESS:       2014 HIT:        449 MISS:       1565
cpu0_L2C PREFETCH REQUESTED:     127784 ISSUED:     127784 USEFUL:       4909 USELESS:       6115
cpu0_L2C AVERAGE MISS LATENCY: 283.9 cycles
cpu0_STLB TOTAL        ACCESS:     275581 HIT:     273887 MISS:       1694
cpu0_STLB LOAD         ACCESS:     275581 HIT:     273887 MISS:       1694
cpu0_STLB RFO          ACCESS:          0 HIT:          0 MISS:          0
cpu0_STLB PREFETCH     ACCESS:          0 HIT:          0 MISS:          0
cpu0_STLB WRITE        ACCESS:          0 HIT:          0 MISS:          0
cpu0_STLB TRANSLATION  ACCESS:          0 HIT:          0 MISS:          0
cpu0_STLB PREFETCH REQUESTED:          0 ISSUED:          0 USEFUL:          0 USELESS:          0
cpu0_STLB AVERAGE MISS LATENCY: 527.8 cycles

DRAM Statistics

Channel 0 RQ ROW_BUFFER_HIT:      16717
  ROW_BUFFER_MISS:      54351
 AVG DBUS CONGESTED CYCLE: 3.923
WQ ROW_BUFFER_HIT: Channel 0 
  ROW_BUFFER_MISS:        767
  FULL:      18783
