WARNING: physical memory size is smaller than virtual memory size.

*** ChampSim Multicore Out-of-Order Simulator ***
Warmup Instructions: 25000000
Simulation Instructions: 25000000
Number of CPUs: 1
Page size: 4096

Initialize Hawkeye state
Off-chip DRAM Size: 4 GiB Channels: 1 Width: 64-bit Data Race: 800 MT/s
Heartbeat CPU 0 instructions: 10000001 cycles: 2500087 heartbeat IPC: 4 cumulative IPC: 4 (Simulation time: 00 hr 00 min 30 sec)
Heartbeat CPU 0 instructions: 20000003 cycles: 5000095 heartbeat IPC: 4 cumulative IPC: 4 (Simulation time: 00 hr 01 min 05 sec)
Warmup finished CPU 0 instructions: 25000003 cycles: 6250096 cumulative IPC: 4 (Simulation time: 00 hr 01 min 23 sec)
Warmup complete CPU 0 instructions: 25000003 cycles: 6250096 cumulative IPC: 4 (Simulation time: 00 hr 01 min 23 sec)
Heartbeat CPU 0 instructions: 30000000 cycles: 10937283 heartbeat IPC: 1.684 cumulative IPC: 1.067 (Simulation time: 00 hr 02 min 01 sec)
Heartbeat CPU 0 instructions: 40000001 cycles: 20253530 heartbeat IPC: 1.073 cumulative IPC: 1.071 (Simulation time: 00 hr 03 min 15 sec)
Heartbeat CPU 0 instructions: 50000002 cycles: 30936597 heartbeat IPC: 0.9361 cumulative IPC: 1.013 (Simulation time: 00 hr 04 min 37 sec)
Simulation finished CPU 0 instructions: 25000003 cycles: 24686503 cumulative IPC: 1.013 (Simulation time: 00 hr 04 min 37 sec)
Simulation complete CPU 0 instructions: 25000003 cycles: 24686503 cumulative IPC: 1.013 (Simulation time: 00 hr 04 min 37 sec)

ChampSim completed all CPUs

=== Simulation ===
CPU 0 runs ./traces/602.gcc_s-734B.champsimtrace.xz
Region of Interest Statistics

CPU 0 cumulative IPC: 1.013 instructions: 25000003 cycles: 24686503
CPU 0 Branch Prediction Accuracy: 89.42% MPKI: 25.09 Average ROB Occupancy at Mispredict: 17.51
Branch type MPKI
BRANCH_DIRECT_JUMP: 0.0794
BRANCH_INDIRECT: 0
BRANCH_CONDITIONAL: 25
BRANCH_DIRECT_CALL: 0.0548
BRANCH_INDIRECT_CALL: 0
BRANCH_RETURN: 0

LLC TOTAL        ACCESS:     211536 HIT:      29182 MISS:     182354
LLC LOAD         ACCESS:       6009 HIT:       2952 MISS:       3057
LLC RFO          ACCESS:          1 HIT:          1 MISS:          0
LLC PREFETCH     ACCESS:     201648 HIT:      24531 MISS:     177117
LLC WRITE        ACCESS:       1295 HIT:        449 MISS:        846
LLC TRANSLATION  ACCESS:       2583 HIT:       1249 MISS:       1334
LLC PREFETCH REQUESTED:          0 ISSUED:          0 USEFUL:          0 USELESS:          0
LLC AVERAGE MISS LATENCY: 136.4 cycles
cpu0_DTLB TOTAL        ACCESS:    6245212 HIT:    6232636 MISS:      12576
cpu0_DTLB LOAD         ACCESS:    6245212 HIT:    6232636 MISS:      12576
cpu0_DTLB RFO          ACCESS:          0 HIT:          0 MISS:          0
cpu0_DTLB PREFETCH     ACCESS:          0 HIT:          0 MISS:          0
cpu0_DTLB WRITE        ACCESS:          0 HIT:          0 MISS:          0
cpu0_DTLB TRANSLATION  ACCESS:          0 HIT:          0 MISS:          0
cpu0_DTLB PREFETCH REQUESTED:          0 ISSUED:          0 USEFUL:          0 USELESS:          0
cpu0_DTLB AVERAGE MISS LATENCY: 54.43 cycles
cpu0_ITLB TOTAL        ACCESS:          4 HIT:          4 MISS:          0
cpu0_ITLB LOAD         ACCESS:          4 HIT:          4 MISS:          0
cpu0_ITLB RFO          ACCESS:          0 HIT:          0 MISS:          0
cpu0_ITLB PREFETCH     ACCESS:          0 HIT:          0 MISS:          0
cpu0_ITLB WRITE        ACCESS:          0 HIT:          0 MISS:          0
cpu0_ITLB TRANSLATION  ACCESS:          0 HIT:          0 MISS:          0
cpu0_ITLB PREFETCH REQUESTED:          0 ISSUED:          0 USEFUL:          0 USELESS:          0
cpu0_ITLB AVERAGE MISS LATENCY: -nan cycles
cpu0_L1D TOTAL        ACCESS:   13789609 HIT:   11775842 MISS:    2013767
cpu0_L1D LOAD         ACCESS:    5605931 HIT:    5353119 MISS:     252812
cpu0_L1D RFO          ACCESS:          0 HIT:          0 MISS:          0
cpu0_L1D PREFETCH     ACCESS:    5600466 HIT:    3842340 MISS:    1758126
cpu0_L1D WRITE        ACCESS:    2577605 HIT:    2577570 MISS:         35
cpu0_L1D TRANSLATION  ACCESS:       5607 HIT:       2813 MISS:       2794
cpu0_L1D PREFETCH REQUESTED:    5607743 ISSUED:    5600467 USEFUL:     388263 USELESS:      12557
cpu0_L1D AVERAGE MISS LATENCY: 9.308 cycles
cpu0_L1I TOTAL        ACCESS:          4 HIT:          4 MISS:          0
cpu0_L1I LOAD         ACCESS:          4 HIT:          4 MISS:          0
cpu0_L1I RFO          ACCESS:          0 HIT:          0 MISS:          0
cpu0_L1I PREFETCH     ACCESS:          0 HIT:          0 MISS:          0
cpu0_L1I WRITE        ACCESS:          0 HIT:          0 MISS:          0
cpu0_L1I TRANSLATION  ACCESS:          0 HIT:          0 MISS:          0
cpu0_L1I PREFETCH REQUESTED:          0 ISSUED:          0 USEFUL:          0 USELESS:          0
cpu0_L1I AVERAGE MISS LATENCY: -nan cycles
cpu0_L2C TOTAL        ACCESS:     423364 HIT:     212770 MISS:     210594
cpu0_L2C LOAD         ACCESS:      15606 HIT:       9567 MISS:       6039
cpu0_L2C RFO          ACCESS:         10 HIT:          9 MISS:          1
cpu0_L2C PREFETCH     ACCESS:     402072 HIT:     200105 MISS:     201967
cpu0_L2C WRITE        ACCESS:       2883 HIT:       2879 MISS:          4
cpu0_L2C TRANSLATION  ACCESS:       2793 HIT:        210 MISS:       2583
cpu0_L2C PREFETCH REQUESTED:       1244 ISSUED:       1244 USEFUL:        339 USELESS:        430
cpu0_L2C AVERAGE MISS LATENCY: 138.8 cycles
cpu0_STLB TOTAL        ACCESS:       7141 HIT:       1951 MISS:       5190
cpu0_STLB LOAD         ACCESS:       7141 HIT:       1951 MISS:       5190
cpu0_STLB RFO          ACCESS:          0 HIT:          0 MISS:          0
cpu0_STLB PREFETCH     ACCESS:          0 HIT:          0 MISS:          0
cpu0_STLB WRITE        ACCESS:          0 HIT:          0 MISS:          0
cpu0_STLB TRANSLATION  ACCESS:          0 HIT:          0 MISS:          0
cpu0_STLB PREFETCH REQUESTED:          0 ISSUED:          0 USEFUL:          0 USELESS:          0
cpu0_STLB AVERAGE MISS LATENCY: 125.1 cycles

DRAM Statistics

Channel 0 RQ ROW_BUFFER_HIT:     130732
  ROW_BUFFER_MISS:      50744
 AVG DBUS CONGESTED CYCLE: 3.55
WQ ROW_BUFFER_HIT: Channel 0 
  ROW_BUFFER_MISS:        467
  FULL:        440
OPTgen accesses: 133
OPTgen hits: 49
OPTgen hit rate: 36.8422


