WARNING: physical memory size is smaller than virtual memory size.

*** ChampSim Multicore Out-of-Order Simulator ***
Warmup Instructions: 25000000
Simulation Instructions: 25000000
Number of CPUs: 1
Page size: 4096

Initialize Hawkeye state
Off-chip DRAM Size: 4 GiB Channels: 1 Width: 64-bit Data Race: 800 MT/s
Heartbeat CPU 0 instructions: 10000003 cycles: 2500092 heartbeat IPC: 4 cumulative IPC: 4 (Simulation time: 00 hr 00 min 30 sec)
Heartbeat CPU 0 instructions: 20000003 cycles: 5000092 heartbeat IPC: 4 cumulative IPC: 4 (Simulation time: 00 hr 01 min 06 sec)
Warmup finished CPU 0 instructions: 25000003 cycles: 6250093 cumulative IPC: 4 (Simulation time: 00 hr 01 min 25 sec)
Warmup complete CPU 0 instructions: 25000003 cycles: 6250093 cumulative IPC: 4 (Simulation time: 00 hr 01 min 25 sec)
Heartbeat CPU 0 instructions: 30000003 cycles: 27190197 heartbeat IPC: 0.4507 cumulative IPC: 0.2388 (Simulation time: 00 hr 04 min 25 sec)
Heartbeat CPU 0 instructions: 40000000 cycles: 69083030 heartbeat IPC: 0.2387 cumulative IPC: 0.2387 (Simulation time: 00 hr 10 min 54 sec)
Heartbeat CPU 0 instructions: 50000001 cycles: 86185964 heartbeat IPC: 0.5847 cumulative IPC: 0.3128 (Simulation time: 00 hr 13 min 45 sec)
Simulation finished CPU 0 instructions: 25000002 cycles: 79935873 cumulative IPC: 0.3128 (Simulation time: 00 hr 13 min 45 sec)
Simulation complete CPU 0 instructions: 25000002 cycles: 79935873 cumulative IPC: 0.3128 (Simulation time: 00 hr 13 min 45 sec)

ChampSim completed all CPUs

=== Simulation ===
CPU 0 runs ./traces/603.bwaves_s-891B.champsimtrace.xz
Region of Interest Statistics

CPU 0 cumulative IPC: 0.3128 instructions: 25000002 cycles: 79935873
CPU 0 Branch Prediction Accuracy: 78.12% MPKI: 22.74 Average ROB Occupancy at Mispredict: 293.8
Branch type MPKI
BRANCH_DIRECT_JUMP: 0
BRANCH_INDIRECT: 0
BRANCH_CONDITIONAL: 22.7
BRANCH_DIRECT_CALL: 0
BRANCH_INDIRECT_CALL: 0
BRANCH_RETURN: 0

LLC TOTAL        ACCESS:     843236 HIT:         79 MISS:     843157
LLC LOAD         ACCESS:      10581 HIT:         40 MISS:      10541
LLC RFO          ACCESS:          1 HIT:          0 MISS:          1
LLC PREFETCH     ACCESS:     586702 HIT:         12 MISS:     586690
LLC WRITE        ACCESS:     245851 HIT:         27 MISS:     245824
LLC TRANSLATION  ACCESS:        101 HIT:          0 MISS:        101
LLC PREFETCH REQUESTED:          0 ISSUED:          0 USEFUL:          0 USELESS:          0
LLC AVERAGE MISS LATENCY: 1106 cycles
cpu0_DTLB TOTAL        ACCESS:    5070829 HIT:    5017409 MISS:      53420
cpu0_DTLB LOAD         ACCESS:    5070829 HIT:    5017409 MISS:      53420
cpu0_DTLB RFO          ACCESS:          0 HIT:          0 MISS:          0
cpu0_DTLB PREFETCH     ACCESS:          0 HIT:          0 MISS:          0
cpu0_DTLB WRITE        ACCESS:          0 HIT:          0 MISS:          0
cpu0_DTLB TRANSLATION  ACCESS:          0 HIT:          0 MISS:          0
cpu0_DTLB PREFETCH REQUESTED:          0 ISSUED:          0 USEFUL:          0 USELESS:          0
cpu0_DTLB AVERAGE MISS LATENCY: 31.46 cycles
cpu0_ITLB TOTAL        ACCESS:          7 HIT:          7 MISS:          0
cpu0_ITLB LOAD         ACCESS:          7 HIT:          7 MISS:          0
cpu0_ITLB RFO          ACCESS:          0 HIT:          0 MISS:          0
cpu0_ITLB PREFETCH     ACCESS:          0 HIT:          0 MISS:          0
cpu0_ITLB WRITE        ACCESS:          0 HIT:          0 MISS:          0
cpu0_ITLB TRANSLATION  ACCESS:          0 HIT:          0 MISS:          0
cpu0_ITLB PREFETCH REQUESTED:          0 ISSUED:          0 USEFUL:          0 USELESS:          0
cpu0_ITLB AVERAGE MISS LATENCY: -nan cycles
cpu0_L1D TOTAL        ACCESS:    9222592 HIT:    3400587 MISS:    5822005
cpu0_L1D LOAD         ACCESS:    3943029 HIT:    1150197 MISS:    2792832
cpu0_L1D RFO          ACCESS:          0 HIT:          0 MISS:          0
cpu0_L1D PREFETCH     ACCESS:    3921410 HIT:     892728 MISS:    3028682
cpu0_L1D WRITE        ACCESS:    1348810 HIT:    1348468 MISS:        342
cpu0_L1D TRANSLATION  ACCESS:       9343 HIT:       9194 MISS:        149
cpu0_L1D PREFETCH REQUESTED:    3950693 ISSUED:    3921407 USEFUL:     581414 USELESS:        235
cpu0_L1D AVERAGE MISS LATENCY: 104.9 cycles
cpu0_L1I TOTAL        ACCESS:          9 HIT:          3 MISS:          6
cpu0_L1I LOAD         ACCESS:          9 HIT:          3 MISS:          6
cpu0_L1I RFO          ACCESS:          0 HIT:          0 MISS:          0
cpu0_L1I PREFETCH     ACCESS:          0 HIT:          0 MISS:          0
cpu0_L1I WRITE        ACCESS:          0 HIT:          0 MISS:          0
cpu0_L1I TRANSLATION  ACCESS:          0 HIT:          0 MISS:          0
cpu0_L1I PREFETCH REQUESTED:          0 ISSUED:          0 USEFUL:          0 USELESS:          0
cpu0_L1I AVERAGE MISS LATENCY: 573 cycles
cpu0_L2C TOTAL        ACCESS:    1138342 HIT:     244834 MISS:     893508
cpu0_L2C LOAD         ACCESS:      15833 HIT:        216 MISS:      15617
cpu0_L2C RFO          ACCESS:        215 HIT:        214 MISS:          1
cpu0_L2C PREFETCH     ACCESS:     877865 HIT:        260 MISS:     877605
cpu0_L2C WRITE        ACCESS:     244280 HIT:     244096 MISS:        184
cpu0_L2C TRANSLATION  ACCESS:        149 HIT:         48 MISS:        101
cpu0_L2C PREFETCH REQUESTED:     296217 ISSUED:     296217 USEFUL:       6208 USELESS:      96076
cpu0_L2C AVERAGE MISS LATENCY: 1056 cycles
cpu0_STLB TOTAL        ACCESS:       9351 HIT:         26 MISS:       9325
cpu0_STLB LOAD         ACCESS:       9351 HIT:         26 MISS:       9325
cpu0_STLB RFO          ACCESS:          0 HIT:          0 MISS:          0
cpu0_STLB PREFETCH     ACCESS:          0 HIT:          0 MISS:          0
cpu0_STLB WRITE        ACCESS:          0 HIT:          0 MISS:          0
cpu0_STLB TRANSLATION  ACCESS:          0 HIT:          0 MISS:          0
cpu0_STLB PREFETCH REQUESTED:          0 ISSUED:          0 USEFUL:          0 USELESS:          0
cpu0_STLB AVERAGE MISS LATENCY: 218.3 cycles

DRAM Statistics

Channel 0 RQ ROW_BUFFER_HIT:     430629
  ROW_BUFFER_MISS:     166697
 AVG DBUS CONGESTED CYCLE: 3.964
WQ ROW_BUFFER_HIT: Channel 0 
  ROW_BUFFER_MISS:     111893
  FULL:     134916
OPTgen accesses: 502
OPTgen hits: 1
OPTgen hit rate: 0.199204


