WARNING: physical memory size is smaller than virtual memory size.

*** ChampSim Multicore Out-of-Order Simulator ***
Warmup Instructions: 25000000
Simulation Instructions: 25000000
Number of CPUs: 1
Page size: 4096

Initialize Hawkeye state
Off-chip DRAM Size: 4 GiB Channels: 1 Width: 64-bit Data Race: 800 MT/s
Heartbeat CPU 0 instructions: 10000000 cycles: 2500105 heartbeat IPC: 4 cumulative IPC: 4 (Simulation time: 00 hr 00 min 40 sec)
Heartbeat CPU 0 instructions: 20000000 cycles: 5000105 heartbeat IPC: 4 cumulative IPC: 4 (Simulation time: 00 hr 01 min 21 sec)
Warmup finished CPU 0 instructions: 25000002 cycles: 6250109 cumulative IPC: 4 (Simulation time: 00 hr 01 min 40 sec)
Warmup complete CPU 0 instructions: 25000002 cycles: 6250109 cumulative IPC: 4 (Simulation time: 00 hr 01 min 40 sec)
Heartbeat CPU 0 instructions: 30000000 cycles: 16366588 heartbeat IPC: 0.8798 cumulative IPC: 0.4942 (Simulation time: 00 hr 03 min 14 sec)
Heartbeat CPU 0 instructions: 40000002 cycles: 36880465 heartbeat IPC: 0.4875 cumulative IPC: 0.4897 (Simulation time: 00 hr 06 min 29 sec)
Heartbeat CPU 0 instructions: 50000003 cycles: 55485226 heartbeat IPC: 0.5375 cumulative IPC: 0.5078 (Simulation time: 00 hr 09 min 24 sec)
Simulation finished CPU 0 instructions: 25000001 cycles: 49235118 cumulative IPC: 0.5078 (Simulation time: 00 hr 09 min 24 sec)
Simulation complete CPU 0 instructions: 25000001 cycles: 49235118 cumulative IPC: 0.5078 (Simulation time: 00 hr 09 min 24 sec)

ChampSim completed all CPUs

=== Simulation ===
CPU 0 runs ./traces/603.bwaves_s-2931B.champsimtrace.xz
Region of Interest Statistics

CPU 0 cumulative IPC: 0.5078 instructions: 25000001 cycles: 49235118
CPU 0 Branch Prediction Accuracy: 80.62% MPKI: 1.636 Average ROB Occupancy at Mispredict: 341.7
Branch type MPKI
BRANCH_DIRECT_JUMP: 0
BRANCH_INDIRECT: 0
BRANCH_CONDITIONAL: 1.64
BRANCH_DIRECT_CALL: 0
BRANCH_INDIRECT_CALL: 0
BRANCH_RETURN: 0

LLC TOTAL        ACCESS:     535228 HIT:       7904 MISS:     527324
LLC LOAD         ACCESS:      20513 HIT:        573 MISS:      19940
LLC RFO          ACCESS:     148841 HIT:          0 MISS:     148841
LLC PREFETCH     ACCESS:     216173 HIT:       4415 MISS:     211758
LLC WRITE        ACCESS:     149044 HIT:       2700 MISS:     146344
LLC TRANSLATION  ACCESS:        657 HIT:        216 MISS:        441
LLC PREFETCH REQUESTED:          0 ISSUED:          0 USEFUL:          0 USELESS:          0
LLC AVERAGE MISS LATENCY: 1139 cycles
cpu0_DTLB TOTAL        ACCESS:    5571549 HIT:    5532755 MISS:      38794
cpu0_DTLB LOAD         ACCESS:    5571549 HIT:    5532755 MISS:      38794
cpu0_DTLB RFO          ACCESS:          0 HIT:          0 MISS:          0
cpu0_DTLB PREFETCH     ACCESS:          0 HIT:          0 MISS:          0
cpu0_DTLB WRITE        ACCESS:          0 HIT:          0 MISS:          0
cpu0_DTLB TRANSLATION  ACCESS:          0 HIT:          0 MISS:          0
cpu0_DTLB PREFETCH REQUESTED:          0 ISSUED:          0 USEFUL:          0 USELESS:          0
cpu0_DTLB AVERAGE MISS LATENCY: 37.48 cycles
cpu0_ITLB TOTAL        ACCESS:          0 HIT:          0 MISS:          0
cpu0_ITLB LOAD         ACCESS:          0 HIT:          0 MISS:          0
cpu0_ITLB RFO          ACCESS:          0 HIT:          0 MISS:          0
cpu0_ITLB PREFETCH     ACCESS:          0 HIT:          0 MISS:          0
cpu0_ITLB WRITE        ACCESS:          0 HIT:          0 MISS:          0
cpu0_ITLB TRANSLATION  ACCESS:          0 HIT:          0 MISS:          0
cpu0_ITLB PREFETCH REQUESTED:          0 ISSUED:          0 USEFUL:          0 USELESS:          0
cpu0_ITLB AVERAGE MISS LATENCY: -nan cycles
cpu0_L1D TOTAL        ACCESS:    8912950 HIT:    7141177 MISS:    1771773
cpu0_L1D LOAD         ACCESS:    3202983 HIT:    2918869 MISS:     284114
cpu0_L1D RFO          ACCESS:          0 HIT:          0 MISS:          0
cpu0_L1D PREFETCH     ACCESS:    1298175 HIT:     810966 MISS:     487209
cpu0_L1D WRITE        ACCESS:    4406463 HIT:    3411339 MISS:     995124
cpu0_L1D TRANSLATION  ACCESS:       5329 HIT:          3 MISS:       5326
cpu0_L1D PREFETCH REQUESTED:    3895004 ISSUED:    1298183 USEFUL:     247891 USELESS:       5319
cpu0_L1D AVERAGE MISS LATENCY: 223.2 cycles
cpu0_L1I TOTAL        ACCESS:          0 HIT:          0 MISS:          0
cpu0_L1I LOAD         ACCESS:          0 HIT:          0 MISS:          0
cpu0_L1I RFO          ACCESS:          0 HIT:          0 MISS:          0
cpu0_L1I PREFETCH     ACCESS:          0 HIT:          0 MISS:          0
cpu0_L1I WRITE        ACCESS:          0 HIT:          0 MISS:          0
cpu0_L1I TRANSLATION  ACCESS:          0 HIT:          0 MISS:          0
cpu0_L1I PREFETCH REQUESTED:          0 ISSUED:          0 USEFUL:          0 USELESS:          0
cpu0_L1I AVERAGE MISS LATENCY: -nan cycles
cpu0_L2C TOTAL        ACCESS:     711266 HIT:     322566 MISS:     388700
cpu0_L2C LOAD         ACCESS:      58580 HIT:      37985 MISS:      20595
cpu0_L2C RFO          ACCESS:     187348 HIT:      38507 MISS:     148841
cpu0_L2C PREFETCH     ACCESS:     270014 HIT:      51518 MISS:     218496
cpu0_L2C WRITE        ACCESS:     189998 HIT:     189887 MISS:        111
cpu0_L2C TRANSLATION  ACCESS:       5326 HIT:       4669 MISS:        657
cpu0_L2C PREFETCH REQUESTED:      16814 ISSUED:      16814 USEFUL:      10513 USELESS:        985
cpu0_L2C AVERAGE MISS LATENCY: 1563 cycles
cpu0_STLB TOTAL        ACCESS:      30481 HIT:      25166 MISS:       5315
cpu0_STLB LOAD         ACCESS:      30481 HIT:      25166 MISS:       5315
cpu0_STLB RFO          ACCESS:          0 HIT:          0 MISS:          0
cpu0_STLB PREFETCH     ACCESS:          0 HIT:          0 MISS:          0
cpu0_STLB WRITE        ACCESS:          0 HIT:          0 MISS:          0
cpu0_STLB TRANSLATION  ACCESS:          0 HIT:          0 MISS:          0
cpu0_STLB PREFETCH REQUESTED:          0 ISSUED:          0 USEFUL:          0 USELESS:          0
cpu0_STLB AVERAGE MISS LATENCY: 331.2 cycles

DRAM Statistics

Channel 0 RQ ROW_BUFFER_HIT:     206835
  ROW_BUFFER_MISS:     174122
 AVG DBUS CONGESTED CYCLE: 3.838
WQ ROW_BUFFER_HIT: Channel 0 
  ROW_BUFFER_MISS:      60900
  FULL:      96564
OPTgen accesses: 1498
OPTgen hits: 126
OPTgen hit rate: 8.41122


