WARNING: physical memory size is smaller than virtual memory size.

*** ChampSim Multicore Out-of-Order Simulator ***
Warmup Instructions: 25000000
Simulation Instructions: 25000000
Number of CPUs: 1
Page size: 4096

Initialize Hawkeye state
Off-chip DRAM Size: 4 GiB Channels: 1 Width: 64-bit Data Race: 800 MT/s
Heartbeat CPU 0 instructions: 10000002 cycles: 2500136 heartbeat IPC: 4 cumulative IPC: 4 (Simulation time: 00 hr 00 min 42 sec)
Heartbeat CPU 0 instructions: 20000003 cycles: 5000153 heartbeat IPC: 4 cumulative IPC: 4 (Simulation time: 00 hr 01 min 23 sec)
Warmup finished CPU 0 instructions: 25000003 cycles: 6250154 cumulative IPC: 4 (Simulation time: 00 hr 01 min 42 sec)
Warmup complete CPU 0 instructions: 25000003 cycles: 6250154 cumulative IPC: 4 (Simulation time: 00 hr 01 min 42 sec)
Heartbeat CPU 0 instructions: 30000000 cycles: 13841097 heartbeat IPC: 1.131 cumulative IPC: 0.6587 (Simulation time: 00 hr 03 min 00 sec)
Heartbeat CPU 0 instructions: 40000001 cycles: 29001462 heartbeat IPC: 0.6596 cumulative IPC: 0.6593 (Simulation time: 00 hr 05 min 43 sec)
Heartbeat CPU 0 instructions: 50000003 cycles: 44172580 heartbeat IPC: 0.6591 cumulative IPC: 0.6592 (Simulation time: 00 hr 08 min 23 sec)
Simulation finished CPU 0 instructions: 25000000 cycles: 37922427 cumulative IPC: 0.6592 (Simulation time: 00 hr 08 min 23 sec)
Simulation complete CPU 0 instructions: 25000000 cycles: 37922427 cumulative IPC: 0.6592 (Simulation time: 00 hr 08 min 23 sec)

ChampSim completed all CPUs

=== Simulation ===
CPU 0 runs ./traces/603.bwaves_s-2609B.champsimtrace.xz
Region of Interest Statistics

CPU 0 cumulative IPC: 0.6592 instructions: 25000000 cycles: 37922427
CPU 0 Branch Prediction Accuracy: 81.23% MPKI: 4.685 Average ROB Occupancy at Mispredict: 300.6
Branch type MPKI
BRANCH_DIRECT_JUMP: 0
BRANCH_INDIRECT: 0
BRANCH_CONDITIONAL: 4.68
BRANCH_DIRECT_CALL: 0
BRANCH_INDIRECT_CALL: 0
BRANCH_RETURN: 0

LLC TOTAL        ACCESS:     503325 HIT:      23901 MISS:     479424
LLC LOAD         ACCESS:     236547 HIT:      10599 MISS:     225948
LLC RFO          ACCESS:      12181 HIT:          0 MISS:      12181
LLC PREFETCH     ACCESS:     242231 HIT:       1280 MISS:     240951
LLC WRITE        ACCESS:      12253 HIT:      11997 MISS:        256
LLC TRANSLATION  ACCESS:        113 HIT:         25 MISS:         88
LLC PREFETCH REQUESTED:          0 ISSUED:          0 USEFUL:          0 USELESS:          0
LLC AVERAGE MISS LATENCY: 996.8 cycles
cpu0_DTLB TOTAL        ACCESS:    6672120 HIT:    6648315 MISS:      23805
cpu0_DTLB LOAD         ACCESS:    6672120 HIT:    6648315 MISS:      23805
cpu0_DTLB RFO          ACCESS:          0 HIT:          0 MISS:          0
cpu0_DTLB PREFETCH     ACCESS:          0 HIT:          0 MISS:          0
cpu0_DTLB WRITE        ACCESS:          0 HIT:          0 MISS:          0
cpu0_DTLB TRANSLATION  ACCESS:          0 HIT:          0 MISS:          0
cpu0_DTLB PREFETCH REQUESTED:          0 ISSUED:          0 USEFUL:          0 USELESS:          0
cpu0_DTLB AVERAGE MISS LATENCY: 57.11 cycles
cpu0_ITLB TOTAL        ACCESS:          0 HIT:          0 MISS:          0
cpu0_ITLB LOAD         ACCESS:          0 HIT:          0 MISS:          0
cpu0_ITLB RFO          ACCESS:          0 HIT:          0 MISS:          0
cpu0_ITLB PREFETCH     ACCESS:          0 HIT:          0 MISS:          0
cpu0_ITLB WRITE        ACCESS:          0 HIT:          0 MISS:          0
cpu0_ITLB TRANSLATION  ACCESS:          0 HIT:          0 MISS:          0
cpu0_ITLB PREFETCH REQUESTED:          0 ISSUED:          0 USEFUL:          0 USELESS:          0
cpu0_ITLB AVERAGE MISS LATENCY: -nan cycles
cpu0_L1D TOTAL        ACCESS:    9603656 HIT:    8367442 MISS:    1236214
cpu0_L1D LOAD         ACCESS:    6389550 HIT:    5630206 MISS:     759344
cpu0_L1D RFO          ACCESS:          0 HIT:          0 MISS:          0
cpu0_L1D PREFETCH     ACCESS:    1798311 HIT:    1392069 MISS:     406242
cpu0_L1D WRITE        ACCESS:    1408364 HIT:    1344909 MISS:      63455
cpu0_L1D TRANSLATION  ACCESS:       7431 HIT:        258 MISS:       7173
cpu0_L1D PREFETCH REQUESTED:    9357041 ISSUED:    1798318 USEFUL:     192025 USELESS:       6071
cpu0_L1D AVERAGE MISS LATENCY: 215.6 cycles
cpu0_L1I TOTAL        ACCESS:          0 HIT:          0 MISS:          0
cpu0_L1I LOAD         ACCESS:          0 HIT:          0 MISS:          0
cpu0_L1I RFO          ACCESS:          0 HIT:          0 MISS:          0
cpu0_L1I PREFETCH     ACCESS:          0 HIT:          0 MISS:          0
cpu0_L1I WRITE        ACCESS:          0 HIT:          0 MISS:          0
cpu0_L1I TRANSLATION  ACCESS:          0 HIT:          0 MISS:          0
cpu0_L1I PREFETCH REQUESTED:          0 ISSUED:          0 USEFUL:          0 USELESS:          0
cpu0_L1I AVERAGE MISS LATENCY: -nan cycles
cpu0_L2C TOTAL        ACCESS:     693071 HIT:     110464 MISS:     582607
cpu0_L2C LOAD         ACCESS:     311550 HIT:      46503 MISS:     265047
cpu0_L2C RFO          ACCESS:      14859 HIT:       2677 MISS:      12182
cpu0_L2C PREFETCH     ACCESS:     343182 HIT:      37999 MISS:     305183
cpu0_L2C WRITE        ACCESS:      16307 HIT:      16225 MISS:         82
cpu0_L2C TRANSLATION  ACCESS:       7173 HIT:       7060 MISS:        113
cpu0_L2C PREFETCH REQUESTED:     145075 ISSUED:     145075 USEFUL:      61430 USELESS:      11121
cpu0_L2C AVERAGE MISS LATENCY: 790.8 cycles
cpu0_STLB TOTAL        ACCESS:      13752 HIT:       6335 MISS:       7417
cpu0_STLB LOAD         ACCESS:      13752 HIT:       6335 MISS:       7417
cpu0_STLB RFO          ACCESS:          0 HIT:          0 MISS:          0
cpu0_STLB PREFETCH     ACCESS:          0 HIT:          0 MISS:          0
cpu0_STLB WRITE        ACCESS:          0 HIT:          0 MISS:          0
cpu0_STLB TRANSLATION  ACCESS:          0 HIT:          0 MISS:          0
cpu0_STLB PREFETCH REQUESTED:          0 ISSUED:          0 USEFUL:          0 USELESS:          0
cpu0_STLB AVERAGE MISS LATENCY: 225.3 cycles

DRAM Statistics

Channel 0 RQ ROW_BUFFER_HIT:     344443
  ROW_BUFFER_MISS:     131219
 AVG DBUS CONGESTED CYCLE: 3.75
WQ ROW_BUFFER_HIT: Channel 0 
  ROW_BUFFER_MISS:         97
  FULL:        980
OPTgen accesses: 1835
OPTgen hits: 117
OPTgen hit rate: 6.37603


