WARNING: physical memory size is smaller than virtual memory size.

*** ChampSim Multicore Out-of-Order Simulator ***
Warmup Instructions: 25000000
Simulation Instructions: 25000000
Number of CPUs: 1
Page size: 4096

Initialize Hawkeye state
Off-chip DRAM Size: 4 GiB Channels: 1 Width: 64-bit Data Race: 800 MT/s
Heartbeat CPU 0 instructions: 10000003 cycles: 2500157 heartbeat IPC: 4 cumulative IPC: 4 (Simulation time: 00 hr 00 min 34 sec)
Heartbeat CPU 0 instructions: 20000003 cycles: 5000157 heartbeat IPC: 4 cumulative IPC: 4 (Simulation time: 00 hr 01 min 15 sec)
Warmup finished CPU 0 instructions: 25000003 cycles: 6250158 cumulative IPC: 4 (Simulation time: 00 hr 01 min 35 sec)
Warmup complete CPU 0 instructions: 25000003 cycles: 6250158 cumulative IPC: 4 (Simulation time: 00 hr 01 min 35 sec)
Heartbeat CPU 0 instructions: 30000003 cycles: 13992694 heartbeat IPC: 1.112 cumulative IPC: 0.6458 (Simulation time: 00 hr 02 min 52 sec)
Heartbeat CPU 0 instructions: 40000000 cycles: 29571170 heartbeat IPC: 0.6419 cumulative IPC: 0.6432 (Simulation time: 00 hr 05 min 41 sec)
Heartbeat CPU 0 instructions: 50000000 cycles: 45272778 heartbeat IPC: 0.6369 cumulative IPC: 0.6407 (Simulation time: 00 hr 08 min 34 sec)
Simulation finished CPU 0 instructions: 25000001 cycles: 39022622 cumulative IPC: 0.6407 (Simulation time: 00 hr 08 min 34 sec)
Simulation complete CPU 0 instructions: 25000001 cycles: 39022622 cumulative IPC: 0.6407 (Simulation time: 00 hr 08 min 34 sec)

ChampSim completed all CPUs

=== Simulation ===
CPU 0 runs ./traces/603.bwaves_s-1740B.champsimtrace.xz
Region of Interest Statistics

CPU 0 cumulative IPC: 0.6407 instructions: 25000001 cycles: 39022622
CPU 0 Branch Prediction Accuracy: 81.23% MPKI: 4.685 Average ROB Occupancy at Mispredict: 300.7
Branch type MPKI
BRANCH_DIRECT_JUMP: 0
BRANCH_INDIRECT: 0
BRANCH_CONDITIONAL: 4.68
BRANCH_DIRECT_CALL: 0
BRANCH_INDIRECT_CALL: 0
BRANCH_RETURN: 0

LLC TOTAL        ACCESS:     503625 HIT:      13469 MISS:     490156
LLC LOAD         ACCESS:     235838 HIT:      10477 MISS:     225361
LLC RFO          ACCESS:      12181 HIT:          0 MISS:      12181
LLC PREFETCH     ACCESS:     243076 HIT:       1461 MISS:     241615
LLC WRITE        ACCESS:      12263 HIT:       1531 MISS:      10732
LLC TRANSLATION  ACCESS:        267 HIT:          0 MISS:        267
LLC PREFETCH REQUESTED:          0 ISSUED:          0 USEFUL:          0 USELESS:          0
LLC AVERAGE MISS LATENCY: 1003 cycles
cpu0_DTLB TOTAL        ACCESS:    6670923 HIT:    6626614 MISS:      44309
cpu0_DTLB LOAD         ACCESS:    6670923 HIT:    6626614 MISS:      44309
cpu0_DTLB RFO          ACCESS:          0 HIT:          0 MISS:          0
cpu0_DTLB PREFETCH     ACCESS:          0 HIT:          0 MISS:          0
cpu0_DTLB WRITE        ACCESS:          0 HIT:          0 MISS:          0
cpu0_DTLB TRANSLATION  ACCESS:          0 HIT:          0 MISS:          0
cpu0_DTLB PREFETCH REQUESTED:          0 ISSUED:          0 USEFUL:          0 USELESS:          0
cpu0_DTLB AVERAGE MISS LATENCY: 36.33 cycles
cpu0_ITLB TOTAL        ACCESS:          0 HIT:          0 MISS:          0
cpu0_ITLB LOAD         ACCESS:          0 HIT:          0 MISS:          0
cpu0_ITLB RFO          ACCESS:          0 HIT:          0 MISS:          0
cpu0_ITLB PREFETCH     ACCESS:          0 HIT:          0 MISS:          0
cpu0_ITLB WRITE        ACCESS:          0 HIT:          0 MISS:          0
cpu0_ITLB TRANSLATION  ACCESS:          0 HIT:          0 MISS:          0
cpu0_ITLB PREFETCH REQUESTED:          0 ISSUED:          0 USEFUL:          0 USELESS:          0
cpu0_ITLB AVERAGE MISS LATENCY: -nan cycles
cpu0_L1D TOTAL        ACCESS:    9590703 HIT:    8365242 MISS:    1225461
cpu0_L1D LOAD         ACCESS:    6386684 HIT:    5631663 MISS:     755021
cpu0_L1D RFO          ACCESS:          0 HIT:          0 MISS:          0
cpu0_L1D PREFETCH     ACCESS:    1788226 HIT:    1388953 MISS:     399273
cpu0_L1D WRITE        ACCESS:    1408357 HIT:    1344465 MISS:      63892
cpu0_L1D TRANSLATION  ACCESS:       7436 HIT:        161 MISS:       7275
cpu0_L1D PREFETCH REQUESTED:    9412924 ISSUED:    1788226 USEFUL:     191524 USELESS:       6137
cpu0_L1D AVERAGE MISS LATENCY: 226.3 cycles
cpu0_L1I TOTAL        ACCESS:          0 HIT:          0 MISS:          0
cpu0_L1I LOAD         ACCESS:          0 HIT:          0 MISS:          0
cpu0_L1I RFO          ACCESS:          0 HIT:          0 MISS:          0
cpu0_L1I PREFETCH     ACCESS:          0 HIT:          0 MISS:          0
cpu0_L1I WRITE        ACCESS:          0 HIT:          0 MISS:          0
cpu0_L1I TRANSLATION  ACCESS:          0 HIT:          0 MISS:          0
cpu0_L1I PREFETCH REQUESTED:          0 ISSUED:          0 USEFUL:          0 USELESS:          0
cpu0_L1I AVERAGE MISS LATENCY: -nan cycles
cpu0_L2C TOTAL        ACCESS:     696284 HIT:     112157 MISS:     584127
cpu0_L2C LOAD         ACCESS:     311805 HIT:      47282 MISS:     264523
cpu0_L2C RFO          ACCESS:      14838 HIT:       2657 MISS:      12181
cpu0_L2C PREFETCH     ACCESS:     346133 HIT:      39069 MISS:     307064
cpu0_L2C WRITE        ACCESS:      16233 HIT:      16141 MISS:         92
cpu0_L2C TRANSLATION  ACCESS:       7275 HIT:       7008 MISS:        267
cpu0_L2C PREFETCH REQUESTED:     148501 ISSUED:     148501 USEFUL:      62912 USELESS:      11789
cpu0_L2C AVERAGE MISS LATENCY: 810.4 cycles
cpu0_STLB TOTAL        ACCESS:      30812 HIT:      23388 MISS:       7424
cpu0_STLB LOAD         ACCESS:      30812 HIT:      23388 MISS:       7424
cpu0_STLB RFO          ACCESS:          0 HIT:          0 MISS:          0
cpu0_STLB PREFETCH     ACCESS:          0 HIT:          0 MISS:          0
cpu0_STLB WRITE        ACCESS:          0 HIT:          0 MISS:          0
cpu0_STLB TRANSLATION  ACCESS:          0 HIT:          0 MISS:          0
cpu0_STLB PREFETCH REQUESTED:          0 ISSUED:          0 USEFUL:          0 USELESS:          0
cpu0_STLB AVERAGE MISS LATENCY: 248.3 cycles

DRAM Statistics

Channel 0 RQ ROW_BUFFER_HIT:     339586
  ROW_BUFFER_MISS:     136346
 AVG DBUS CONGESTED CYCLE: 3.764
WQ ROW_BUFFER_HIT: Channel 0 
  ROW_BUFFER_MISS:       1219
  FULL:      10290
OPTgen accesses: 1758
OPTgen hits: 61
OPTgen hit rate: 3.46986


