WARNING: physical memory size is smaller than virtual memory size.

*** ChampSim Multicore Out-of-Order Simulator ***
Warmup Instructions: 25000000
Simulation Instructions: 25000000
Number of CPUs: 1
Page size: 4096

Initialize Hawkeye state
Off-chip DRAM Size: 4 GiB Channels: 1 Width: 64-bit Data Race: 800 MT/s
Heartbeat CPU 0 instructions: 10000003 cycles: 2591270 heartbeat IPC: 3.859 cumulative IPC: 3.859 (Simulation time: 00 hr 00 min 43 sec)
Heartbeat CPU 0 instructions: 20000003 cycles: 5188483 heartbeat IPC: 3.85 cumulative IPC: 3.855 (Simulation time: 00 hr 01 min 25 sec)
Warmup finished CPU 0 instructions: 25000000 cycles: 6487159 cumulative IPC: 3.854 (Simulation time: 00 hr 01 min 47 sec)
Warmup complete CPU 0 instructions: 25000000 cycles: 6487159 cumulative IPC: 3.854 (Simulation time: 00 hr 01 min 47 sec)
Heartbeat CPU 0 instructions: 30000000 cycles: 19768602 heartbeat IPC: 0.6859 cumulative IPC: 0.3765 (Simulation time: 00 hr 03 min 14 sec)
Heartbeat CPU 0 instructions: 40000001 cycles: 46648774 heartbeat IPC: 0.372 cumulative IPC: 0.3735 (Simulation time: 00 hr 06 min 06 sec)
Heartbeat CPU 0 instructions: 50000001 cycles: 72333563 heartbeat IPC: 0.3893 cumulative IPC: 0.3797 (Simulation time: 00 hr 08 min 16 sec)
Simulation finished CPU 0 instructions: 25000001 cycles: 65846405 cumulative IPC: 0.3797 (Simulation time: 00 hr 08 min 16 sec)
Simulation complete CPU 0 instructions: 25000001 cycles: 65846405 cumulative IPC: 0.3797 (Simulation time: 00 hr 08 min 16 sec)

ChampSim completed all CPUs

=== Simulation ===
CPU 0 runs ./traces/605.mcf_s-665B.champsimtrace.xz
Region of Interest Statistics

CPU 0 cumulative IPC: 0.3797 instructions: 25000001 cycles: 65846405
CPU 0 Branch Prediction Accuracy: 85.71% MPKI: 35.61 Average ROB Occupancy at Mispredict: 12.03
Branch type MPKI
BRANCH_DIRECT_JUMP: 0.211
BRANCH_INDIRECT: 0
BRANCH_CONDITIONAL: 35.4
BRANCH_DIRECT_CALL: 0
BRANCH_INDIRECT_CALL: 0.00512
BRANCH_RETURN: 0

LLC TOTAL        ACCESS:    1306052 HIT:     747944 MISS:     558108
LLC LOAD         ACCESS:     501777 HIT:     349070 MISS:     152707
LLC RFO          ACCESS:      80164 HIT:      71091 MISS:       9073
LLC PREFETCH     ACCESS:     615375 HIT:     223163 MISS:     392212
LLC WRITE        ACCESS:     105525 HIT:     102448 MISS:       3077
LLC TRANSLATION  ACCESS:       3211 HIT:       2172 MISS:       1039
LLC PREFETCH REQUESTED:          0 ISSUED:          0 USEFUL:          0 USELESS:          0
LLC AVERAGE MISS LATENCY: 370.5 cycles
cpu0_DTLB TOTAL        ACCESS:    7781488 HIT:    7246972 MISS:     534516
cpu0_DTLB LOAD         ACCESS:    7781488 HIT:    7246972 MISS:     534516
cpu0_DTLB RFO          ACCESS:          0 HIT:          0 MISS:          0
cpu0_DTLB PREFETCH     ACCESS:          0 HIT:          0 MISS:          0
cpu0_DTLB WRITE        ACCESS:          0 HIT:          0 MISS:          0
cpu0_DTLB TRANSLATION  ACCESS:          0 HIT:          0 MISS:          0
cpu0_DTLB PREFETCH REQUESTED:          0 ISSUED:          0 USEFUL:          0 USELESS:          0
cpu0_DTLB AVERAGE MISS LATENCY: 8.566 cycles
cpu0_ITLB TOTAL        ACCESS:      10093 HIT:      10093 MISS:          0
cpu0_ITLB LOAD         ACCESS:      10093 HIT:      10093 MISS:          0
cpu0_ITLB RFO          ACCESS:          0 HIT:          0 MISS:          0
cpu0_ITLB PREFETCH     ACCESS:          0 HIT:          0 MISS:          0
cpu0_ITLB WRITE        ACCESS:          0 HIT:          0 MISS:          0
cpu0_ITLB TRANSLATION  ACCESS:          0 HIT:          0 MISS:          0
cpu0_ITLB PREFETCH REQUESTED:          0 ISSUED:          0 USEFUL:          0 USELESS:          0
cpu0_ITLB AVERAGE MISS LATENCY: -nan cycles
cpu0_L1D TOTAL        ACCESS:   16111768 HIT:   13457076 MISS:    2654692
cpu0_L1D LOAD         ACCESS:    7061144 HIT:    5937148 MISS:    1123996
cpu0_L1D RFO          ACCESS:          0 HIT:          0 MISS:          0
cpu0_L1D PREFETCH     ACCESS:    6170982 HIT:    4944344 MISS:    1226638
cpu0_L1D WRITE        ACCESS:    2872998 HIT:    2573174 MISS:     299824
cpu0_L1D TRANSLATION  ACCESS:       6644 HIT:       2410 MISS:       4234
cpu0_L1D PREFETCH REQUESTED:    7239255 ISSUED:    6170974 USEFUL:     205860 USELESS:     585281
cpu0_L1D AVERAGE MISS LATENCY: 82.3 cycles
cpu0_L1I TOTAL        ACCESS:      11241 HIT:      11241 MISS:          0
cpu0_L1I LOAD         ACCESS:      11241 HIT:      11241 MISS:          0
cpu0_L1I RFO          ACCESS:          0 HIT:          0 MISS:          0
cpu0_L1I PREFETCH     ACCESS:          0 HIT:          0 MISS:          0
cpu0_L1I WRITE        ACCESS:          0 HIT:          0 MISS:          0
cpu0_L1I TRANSLATION  ACCESS:          0 HIT:          0 MISS:          0
cpu0_L1I PREFETCH REQUESTED:          0 ISSUED:          0 USEFUL:          0 USELESS:          0
cpu0_L1I AVERAGE MISS LATENCY: -nan cycles
cpu0_L2C TOTAL        ACCESS:    1951040 HIT:     722949 MISS:    1228091
cpu0_L2C LOAD         ACCESS:     811105 HIT:     304227 MISS:     506878
cpu0_L2C RFO          ACCESS:     104298 HIT:      24134 MISS:      80164
cpu0_L2C PREFETCH     ACCESS:     879933 HIT:     242268 MISS:     637665
cpu0_L2C WRITE        ACCESS:     151471 HIT:     151298 MISS:        173
cpu0_L2C TRANSLATION  ACCESS:       4233 HIT:       1022 MISS:       3211
cpu0_L2C PREFETCH REQUESTED:      88748 ISSUED:      88748 USEFUL:      30469 USELESS:       7843
cpu0_L2C AVERAGE MISS LATENCY: 186.3 cycles
cpu0_STLB TOTAL        ACCESS:     444565 HIT:     437957 MISS:       6608
cpu0_STLB LOAD         ACCESS:     444565 HIT:     437957 MISS:       6608
cpu0_STLB RFO          ACCESS:          0 HIT:          0 MISS:          0
cpu0_STLB PREFETCH     ACCESS:          0 HIT:          0 MISS:          0
cpu0_STLB WRITE        ACCESS:          0 HIT:          0 MISS:          0
cpu0_STLB TRANSLATION  ACCESS:          0 HIT:          0 MISS:          0
cpu0_STLB PREFETCH REQUESTED:          0 ISSUED:          0 USEFUL:          0 USELESS:          0
cpu0_STLB AVERAGE MISS LATENCY: 186.1 cycles

DRAM Statistics

Channel 0 RQ ROW_BUFFER_HIT:      59604
  ROW_BUFFER_MISS:     491439
 AVG DBUS CONGESTED CYCLE: 3.879
WQ ROW_BUFFER_HIT: Channel 0 
  ROW_BUFFER_MISS:       2495
  FULL:      16203
OPTgen accesses: 4954
OPTgen hits: 3965
OPTgen hit rate: 80.0364


