WARNING: physical memory size is smaller than virtual memory size.

*** ChampSim Multicore Out-of-Order Simulator ***
Warmup Instructions: 25000000
Simulation Instructions: 25000000
Number of CPUs: 1
Page size: 4096

Initialize Hawkeye state
Off-chip DRAM Size: 4 GiB Channels: 1 Width: 64-bit Data Race: 800 MT/s
Heartbeat CPU 0 instructions: 10000000 cycles: 3499462 heartbeat IPC: 2.858 cumulative IPC: 2.858 (Simulation time: 00 hr 01 min 05 sec)
Heartbeat CPU 0 instructions: 20000001 cycles: 6997735 heartbeat IPC: 2.859 cumulative IPC: 2.858 (Simulation time: 00 hr 02 min 12 sec)
Warmup finished CPU 0 instructions: 25000001 cycles: 8748957 cumulative IPC: 2.857 (Simulation time: 00 hr 02 min 43 sec)
Warmup complete CPU 0 instructions: 25000001 cycles: 8748957 cumulative IPC: 2.857 (Simulation time: 00 hr 02 min 43 sec)
Heartbeat CPU 0 instructions: 30000000 cycles: 91886764 heartbeat IPC: 0.1178 cumulative IPC: 0.06014 (Simulation time: 00 hr 09 min 05 sec)
Heartbeat CPU 0 instructions: 40000000 cycles: 265177955 heartbeat IPC: 0.05771 cumulative IPC: 0.0585 (Simulation time: 00 hr 17 min 47 sec)
Heartbeat CPU 0 instructions: 50000001 cycles: 438144005 heartbeat IPC: 0.05781 cumulative IPC: 0.05822 (Simulation time: 00 hr 24 min 15 sec)
Simulation finished CPU 0 instructions: 25000000 cycles: 429395049 cumulative IPC: 0.05822 (Simulation time: 00 hr 24 min 15 sec)
Simulation complete CPU 0 instructions: 25000000 cycles: 429395049 cumulative IPC: 0.05822 (Simulation time: 00 hr 24 min 15 sec)

ChampSim completed all CPUs

=== Simulation ===
CPU 0 runs ./traces/605.mcf_s-1644B.champsimtrace.xz
Region of Interest Statistics

CPU 0 cumulative IPC: 0.05822 instructions: 25000000 cycles: 429395049
CPU 0 Branch Prediction Accuracy: 93.34% MPKI: 8.275 Average ROB Occupancy at Mispredict: 100.5
Branch type MPKI
BRANCH_DIRECT_JUMP: 0
BRANCH_INDIRECT: 0
BRANCH_CONDITIONAL: 8.27
BRANCH_DIRECT_CALL: 0
BRANCH_INDIRECT_CALL: 0
BRANCH_RETURN: 0

LLC TOTAL        ACCESS:    5503068 HIT:     904016 MISS:    4599052
LLC LOAD         ACCESS:     748666 HIT:     107240 MISS:     641426
LLC RFO          ACCESS:    1093087 HIT:         24 MISS:    1093063
LLC PREFETCH     ACCESS:     835054 HIT:     335415 MISS:     499639
LLC WRITE        ACCESS:    2215594 HIT:     456179 MISS:    1759415
LLC TRANSLATION  ACCESS:     610667 HIT:       5158 MISS:     605509
LLC PREFETCH REQUESTED:          0 ISSUED:          0 USEFUL:          0 USELESS:          0
LLC AVERAGE MISS LATENCY: 734.8 cycles
cpu0_DTLB TOTAL        ACCESS:    8608686 HIT:    5354530 MISS:    3254156
cpu0_DTLB LOAD         ACCESS:    8608686 HIT:    5354530 MISS:    3254156
cpu0_DTLB RFO          ACCESS:          0 HIT:          0 MISS:          0
cpu0_DTLB PREFETCH     ACCESS:          0 HIT:          0 MISS:          0
cpu0_DTLB WRITE        ACCESS:          0 HIT:          0 MISS:          0
cpu0_DTLB TRANSLATION  ACCESS:          0 HIT:          0 MISS:          0
cpu0_DTLB PREFETCH REQUESTED:          0 ISSUED:          0 USEFUL:          0 USELESS:          0
cpu0_DTLB AVERAGE MISS LATENCY: 227.9 cycles
cpu0_ITLB TOTAL        ACCESS:          0 HIT:          0 MISS:          0
cpu0_ITLB LOAD         ACCESS:          0 HIT:          0 MISS:          0
cpu0_ITLB RFO          ACCESS:          0 HIT:          0 MISS:          0
cpu0_ITLB PREFETCH     ACCESS:          0 HIT:          0 MISS:          0
cpu0_ITLB WRITE        ACCESS:          0 HIT:          0 MISS:          0
cpu0_ITLB TRANSLATION  ACCESS:          0 HIT:          0 MISS:          0
cpu0_ITLB PREFETCH REQUESTED:          0 ISSUED:          0 USEFUL:          0 USELESS:          0
cpu0_ITLB AVERAGE MISS LATENCY: -nan cycles
cpu0_L1D TOTAL        ACCESS:   15674045 HIT:    6613113 MISS:    9060932
cpu0_L1D LOAD         ACCESS:    3267804 HIT:    1774918 MISS:    1492886
cpu0_L1D RFO          ACCESS:          0 HIT:          0 MISS:          0
cpu0_L1D PREFETCH     ACCESS:    3046717 HIT:    1187526 MISS:    1859191
cpu0_L1D WRITE        ACCESS:    8491096 HIT:    3569976 MISS:    4921120
cpu0_L1D TRANSLATION  ACCESS:     868428 HIT:      80693 MISS:     787735
cpu0_L1D PREFETCH REQUESTED:    4208444 ISSUED:    3046709 USEFUL:     319252 USELESS:     500822
cpu0_L1D AVERAGE MISS LATENCY: 350.9 cycles
cpu0_L1I TOTAL        ACCESS:          0 HIT:          0 MISS:          0
cpu0_L1I LOAD         ACCESS:          0 HIT:          0 MISS:          0
cpu0_L1I RFO          ACCESS:          0 HIT:          0 MISS:          0
cpu0_L1I PREFETCH     ACCESS:          0 HIT:          0 MISS:          0
cpu0_L1I WRITE        ACCESS:          0 HIT:          0 MISS:          0
cpu0_L1I TRANSLATION  ACCESS:          0 HIT:          0 MISS:          0
cpu0_L1I PREFETCH REQUESTED:          0 ISSUED:          0 USEFUL:          0 USELESS:          0
cpu0_L1I AVERAGE MISS LATENCY: -nan cycles
cpu0_L2C TOTAL        ACCESS:    6020901 HIT:    2628088 MISS:    3392813
cpu0_L2C LOAD         ACCESS:     850178 HIT:      88881 MISS:     761297
cpu0_L2C RFO          ACCESS:    1095523 HIT:       2436 MISS:    1093087
cpu0_L2C PREFETCH     ACCESS:    1025677 HIT:      99638 MISS:     926039
cpu0_L2C WRITE        ACCESS:    2264869 HIT:    2263146 MISS:       1723
cpu0_L2C TRANSLATION  ACCESS:     784654 HIT:     173987 MISS:     610667
cpu0_L2C PREFETCH REQUESTED:     205535 ISSUED:     205535 USEFUL:     123550 USELESS:       9655
cpu0_L2C AVERAGE MISS LATENCY: 1011 cycles
cpu0_STLB TOTAL        ACCESS:     727440 HIT:     130384 MISS:     597056
cpu0_STLB LOAD         ACCESS:     727440 HIT:     130384 MISS:     597056
cpu0_STLB RFO          ACCESS:          0 HIT:          0 MISS:          0
cpu0_STLB PREFETCH     ACCESS:          0 HIT:          0 MISS:          0
cpu0_STLB WRITE        ACCESS:          0 HIT:          0 MISS:          0
cpu0_STLB TRANSLATION  ACCESS:          0 HIT:          0 MISS:          0
cpu0_STLB PREFETCH REQUESTED:          0 ISSUED:          0 USEFUL:          0 USELESS:          0
cpu0_STLB AVERAGE MISS LATENCY: 1282 cycles

DRAM Statistics

Channel 0 RQ ROW_BUFFER_HIT:     123344
  ROW_BUFFER_MISS:    2713175
 AVG DBUS CONGESTED CYCLE: 3.991
WQ ROW_BUFFER_HIT: Channel 0 
  ROW_BUFFER_MISS:       6824
  FULL:    2144952
OPTgen accesses: 18432
OPTgen hits: 4169
OPTgen hit rate: 22.6183


