WARNING: physical memory size is smaller than virtual memory size.

*** ChampSim Multicore Out-of-Order Simulator ***
Warmup Instructions: 25000000
Simulation Instructions: 25000000
Number of CPUs: 1
Page size: 4096

Initialize Hawkeye state
Off-chip DRAM Size: 4 GiB Channels: 1 Width: 64-bit Data Race: 800 MT/s
Heartbeat CPU 0 instructions: 10000003 cycles: 2511576 heartbeat IPC: 3.982 cumulative IPC: 3.982 (Simulation time: 00 hr 00 min 46 sec)
Heartbeat CPU 0 instructions: 20000002 cycles: 5022765 heartbeat IPC: 3.982 cumulative IPC: 3.982 (Simulation time: 00 hr 01 min 28 sec)
Warmup finished CPU 0 instructions: 25000000 cycles: 6278934 cumulative IPC: 3.982 (Simulation time: 00 hr 01 min 48 sec)
Warmup complete CPU 0 instructions: 25000000 cycles: 6278934 cumulative IPC: 3.982 (Simulation time: 00 hr 01 min 48 sec)
Heartbeat CPU 0 instructions: 30000001 cycles: 41574937 heartbeat IPC: 0.2736 cumulative IPC: 0.1417 (Simulation time: 00 hr 05 min 20 sec)
Heartbeat CPU 0 instructions: 40000002 cycles: 110548734 heartbeat IPC: 0.145 cumulative IPC: 0.1439 (Simulation time: 00 hr 10 min 21 sec)
Heartbeat CPU 0 instructions: 50000002 cycles: 179502855 heartbeat IPC: 0.145 cumulative IPC: 0.1443 (Simulation time: 00 hr 14 min 35 sec)
Simulation finished CPU 0 instructions: 25000002 cycles: 173223922 cumulative IPC: 0.1443 (Simulation time: 00 hr 14 min 35 sec)
Simulation complete CPU 0 instructions: 25000002 cycles: 173223922 cumulative IPC: 0.1443 (Simulation time: 00 hr 14 min 35 sec)

ChampSim completed all CPUs

=== Simulation ===
CPU 0 runs ./traces/605.mcf_s-1554B.champsimtrace.xz
Region of Interest Statistics

CPU 0 cumulative IPC: 0.1443 instructions: 25000002 cycles: 173223922
CPU 0 Branch Prediction Accuracy: 97.34% MPKI: 4.839 Average ROB Occupancy at Mispredict: 44.41
Branch type MPKI
BRANCH_DIRECT_JUMP: 0
BRANCH_INDIRECT: 0
BRANCH_CONDITIONAL: 4.84
BRANCH_DIRECT_CALL: 0
BRANCH_INDIRECT_CALL: 0
BRANCH_RETURN: 0

LLC TOTAL        ACCESS:    6324109 HIT:    1802278 MISS:    4521831
LLC LOAD         ACCESS:    3330810 HIT:    1087867 MISS:    2242943
LLC RFO          ACCESS:      72868 HIT:         96 MISS:      72772
LLC PREFETCH     ACCESS:    2828277 HIT:     656362 MISS:    2171915
LLC WRITE        ACCESS:      91579 HIT:      57836 MISS:      33743
LLC TRANSLATION  ACCESS:        575 HIT:        117 MISS:        458
LLC PREFETCH REQUESTED:          0 ISSUED:          0 USEFUL:          0 USELESS:          0
LLC AVERAGE MISS LATENCY: 607.5 cycles
cpu0_DTLB TOTAL        ACCESS:    6445350 HIT:    6304981 MISS:     140369
cpu0_DTLB LOAD         ACCESS:    6445350 HIT:    6304981 MISS:     140369
cpu0_DTLB RFO          ACCESS:          0 HIT:          0 MISS:          0
cpu0_DTLB PREFETCH     ACCESS:          0 HIT:          0 MISS:          0
cpu0_DTLB WRITE        ACCESS:          0 HIT:          0 MISS:          0
cpu0_DTLB TRANSLATION  ACCESS:          0 HIT:          0 MISS:          0
cpu0_DTLB PREFETCH REQUESTED:          0 ISSUED:          0 USEFUL:          0 USELESS:          0
cpu0_DTLB AVERAGE MISS LATENCY: 8.76 cycles
cpu0_ITLB TOTAL        ACCESS:          0 HIT:          0 MISS:          0
cpu0_ITLB LOAD         ACCESS:          0 HIT:          0 MISS:          0
cpu0_ITLB RFO          ACCESS:          0 HIT:          0 MISS:          0
cpu0_ITLB PREFETCH     ACCESS:          0 HIT:          0 MISS:          0
cpu0_ITLB WRITE        ACCESS:          0 HIT:          0 MISS:          0
cpu0_ITLB TRANSLATION  ACCESS:          0 HIT:          0 MISS:          0
cpu0_ITLB PREFETCH REQUESTED:          0 ISSUED:          0 USEFUL:          0 USELESS:          0
cpu0_ITLB AVERAGE MISS LATENCY: -nan cycles
cpu0_L1D TOTAL        ACCESS:    9085581 HIT:    4212184 MISS:    4873397
cpu0_L1D LOAD         ACCESS:    5756695 HIT:    1763057 MISS:    3993638
cpu0_L1D RFO          ACCESS:          0 HIT:          0 MISS:          0
cpu0_L1D PREFETCH     ACCESS:    1664890 HIT:    1090219 MISS:     574671
cpu0_L1D WRITE        ACCESS:    1661825 HIT:    1358830 MISS:     302995
cpu0_L1D TRANSLATION  ACCESS:       2171 HIT:         78 MISS:       2093
cpu0_L1D PREFETCH REQUESTED:  118727521 ISSUED:    1664881 USEFUL:      37161 USELESS:     290090
cpu0_L1D AVERAGE MISS LATENCY: 452.4 cycles
cpu0_L1I TOTAL        ACCESS:          0 HIT:          0 MISS:          0
cpu0_L1I LOAD         ACCESS:          0 HIT:          0 MISS:          0
cpu0_L1I RFO          ACCESS:          0 HIT:          0 MISS:          0
cpu0_L1I PREFETCH     ACCESS:          0 HIT:          0 MISS:          0
cpu0_L1I WRITE        ACCESS:          0 HIT:          0 MISS:          0
cpu0_L1I TRANSLATION  ACCESS:          0 HIT:          0 MISS:          0
cpu0_L1I PREFETCH REQUESTED:          0 ISSUED:          0 USEFUL:          0 USELESS:          0
cpu0_L1I AVERAGE MISS LATENCY: -nan cycles
cpu0_L2C TOTAL        ACCESS:    7127919 HIT:     508633 MISS:    6619286
cpu0_L2C LOAD         ACCESS:    3734319 HIT:     219266 MISS:    3515053
cpu0_L2C RFO          ACCESS:      75178 HIT:       2310 MISS:      72868
cpu0_L2C PREFETCH     ACCESS:    3222377 HIT:     191871 MISS:    3030506
cpu0_L2C WRITE        ACCESS:      93952 HIT:      93668 MISS:        284
cpu0_L2C TRANSLATION  ACCESS:       2093 HIT:       1518 MISS:        575
cpu0_L2C PREFETCH REQUESTED:    2895052 ISSUED:    2895052 USEFUL:     443963 USELESS:      98267
cpu0_L2C AVERAGE MISS LATENCY: 349.7 cycles
cpu0_STLB TOTAL        ACCESS:      98466 HIT:      96298 MISS:       2168
cpu0_STLB LOAD         ACCESS:      98466 HIT:      96298 MISS:       2168
cpu0_STLB RFO          ACCESS:          0 HIT:          0 MISS:          0
cpu0_STLB PREFETCH     ACCESS:          0 HIT:          0 MISS:          0
cpu0_STLB WRITE        ACCESS:          0 HIT:          0 MISS:          0
cpu0_STLB TRANSLATION  ACCESS:          0 HIT:          0 MISS:          0
cpu0_STLB PREFETCH REQUESTED:          0 ISSUED:          0 USEFUL:          0 USELESS:          0
cpu0_STLB AVERAGE MISS LATENCY: 310.6 cycles

DRAM Statistics

Channel 0 RQ ROW_BUFFER_HIT:    2618515
  ROW_BUFFER_MISS:     701623
 AVG DBUS CONGESTED CYCLE: 3.908
WQ ROW_BUFFER_HIT: Channel 0 
  ROW_BUFFER_MISS:      16834
  FULL:      73852
OPTgen accesses: 27826
OPTgen hits: 22912
OPTgen hit rate: 82.3403


