WARNING: physical memory size is smaller than virtual memory size.

*** ChampSim Multicore Out-of-Order Simulator ***
Warmup Instructions: 25000000
Simulation Instructions: 25000000
Number of CPUs: 1
Page size: 4096

Initialize Hawkeye state
Off-chip DRAM Size: 4 GiB Channels: 1 Width: 64-bit Data Race: 800 MT/s
Heartbeat CPU 0 instructions: 10000003 cycles: 2500090 heartbeat IPC: 4 cumulative IPC: 4 (Simulation time: 00 hr 00 min 40 sec)
Heartbeat CPU 0 instructions: 20000003 cycles: 5000090 heartbeat IPC: 4 cumulative IPC: 4 (Simulation time: 00 hr 01 min 17 sec)
Warmup finished CPU 0 instructions: 25000003 cycles: 6250091 cumulative IPC: 4 (Simulation time: 00 hr 01 min 34 sec)
Warmup complete CPU 0 instructions: 25000003 cycles: 6250091 cumulative IPC: 4 (Simulation time: 00 hr 01 min 34 sec)
Heartbeat CPU 0 instructions: 30000002 cycles: 32352907 heartbeat IPC: 0.3656 cumulative IPC: 0.1916 (Simulation time: 00 hr 04 min 33 sec)
Heartbeat CPU 0 instructions: 40000002 cycles: 85624932 heartbeat IPC: 0.1877 cumulative IPC: 0.189 (Simulation time: 00 hr 09 min 04 sec)
Heartbeat CPU 0 instructions: 50000002 cycles: 134676991 heartbeat IPC: 0.2039 cumulative IPC: 0.1947 (Simulation time: 00 hr 12 min 49 sec)
Simulation finished CPU 0 instructions: 25000003 cycles: 128426902 cumulative IPC: 0.1947 (Simulation time: 00 hr 12 min 49 sec)
Simulation complete CPU 0 instructions: 25000003 cycles: 128426902 cumulative IPC: 0.1947 (Simulation time: 00 hr 12 min 49 sec)

ChampSim completed all CPUs

=== Simulation ===
CPU 0 runs ./traces/605.mcf_s-1536B.champsimtrace.xz
Region of Interest Statistics

CPU 0 cumulative IPC: 0.1947 instructions: 25000003 cycles: 128426902
CPU 0 Branch Prediction Accuracy: 99.97% MPKI: 0.0528 Average ROB Occupancy at Mispredict: 292.4
Branch type MPKI
BRANCH_DIRECT_JUMP: 0
BRANCH_INDIRECT: 0
BRANCH_CONDITIONAL: 0.0528
BRANCH_DIRECT_CALL: 0
BRANCH_INDIRECT_CALL: 0
BRANCH_RETURN: 0

LLC TOTAL        ACCESS:    2858804 HIT:    1595392 MISS:    1263412
LLC LOAD         ACCESS:     931558 HIT:     789098 MISS:     142460
LLC RFO          ACCESS:      69356 HIT:      54195 MISS:      15161
LLC PREFETCH     ACCESS:     738130 HIT:     173992 MISS:     564138
LLC WRITE        ACCESS:     554548 HIT:     442319 MISS:     112229
LLC TRANSLATION  ACCESS:     565212 HIT:     135788 MISS:     429424
LLC PREFETCH REQUESTED:          0 ISSUED:          0 USEFUL:          0 USELESS:          0
LLC AVERAGE MISS LATENCY: 1015 cycles
cpu0_DTLB TOTAL        ACCESS:    4388772 HIT:    2936304 MISS:    1452468
cpu0_DTLB LOAD         ACCESS:    4388772 HIT:    2936304 MISS:    1452468
cpu0_DTLB RFO          ACCESS:          0 HIT:          0 MISS:          0
cpu0_DTLB PREFETCH     ACCESS:          0 HIT:          0 MISS:          0
cpu0_DTLB WRITE        ACCESS:          0 HIT:          0 MISS:          0
cpu0_DTLB TRANSLATION  ACCESS:          0 HIT:          0 MISS:          0
cpu0_DTLB PREFETCH REQUESTED:          0 ISSUED:          0 USEFUL:          0 USELESS:          0
cpu0_DTLB AVERAGE MISS LATENCY: 344.6 cycles
cpu0_ITLB TOTAL        ACCESS:          0 HIT:          0 MISS:          0
cpu0_ITLB LOAD         ACCESS:          0 HIT:          0 MISS:          0
cpu0_ITLB RFO          ACCESS:          0 HIT:          0 MISS:          0
cpu0_ITLB PREFETCH     ACCESS:          0 HIT:          0 MISS:          0
cpu0_ITLB WRITE        ACCESS:          0 HIT:          0 MISS:          0
cpu0_ITLB TRANSLATION  ACCESS:          0 HIT:          0 MISS:          0
cpu0_ITLB PREFETCH REQUESTED:          0 ISSUED:          0 USEFUL:          0 USELESS:          0
cpu0_ITLB AVERAGE MISS LATENCY: -nan cycles
cpu0_L1D TOTAL        ACCESS:   10153163 HIT:    5453228 MISS:    4699935
cpu0_L1D LOAD         ACCESS:    4200738 HIT:    2222887 MISS:    1977851
cpu0_L1D RFO          ACCESS:          0 HIT:          0 MISS:          0
cpu0_L1D PREFETCH     ACCESS:    4244303 HIT:    2193740 MISS:    2050563
cpu0_L1D WRITE        ACCESS:    1040749 HIT:     964302 MISS:      76447
cpu0_L1D TRANSLATION  ACCESS:     667373 HIT:      72299 MISS:     595074
cpu0_L1D PREFETCH REQUESTED:    5845439 ISSUED:    4244301 USEFUL:       3305 USELESS:     949060
cpu0_L1D AVERAGE MISS LATENCY: 286.9 cycles
cpu0_L1I TOTAL        ACCESS:          0 HIT:          0 MISS:          0
cpu0_L1I LOAD         ACCESS:          0 HIT:          0 MISS:          0
cpu0_L1I RFO          ACCESS:          0 HIT:          0 MISS:          0
cpu0_L1I PREFETCH     ACCESS:          0 HIT:          0 MISS:          0
cpu0_L1I WRITE        ACCESS:          0 HIT:          0 MISS:          0
cpu0_L1I TRANSLATION  ACCESS:          0 HIT:          0 MISS:          0
cpu0_L1I PREFETCH REQUESTED:          0 ISSUED:          0 USEFUL:          0 USELESS:          0
cpu0_L1I AVERAGE MISS LATENCY: -nan cycles
cpu0_L2C TOTAL        ACCESS:    3513081 HIT:    1202186 MISS:    2310895
cpu0_L2C LOAD         ACCESS:    1233668 HIT:     300189 MISS:     933479
cpu0_L2C RFO          ACCESS:      76099 HIT:       6743 MISS:      69356
cpu0_L2C PREFETCH     ACCESS:    1049536 HIT:     306691 MISS:     742845
cpu0_L2C WRITE        ACCESS:     561101 HIT:     561099 MISS:          2
cpu0_L2C TRANSLATION  ACCESS:     592677 HIT:      27464 MISS:     565213
cpu0_L2C PREFETCH REQUESTED:      97181 ISSUED:      97181 USEFUL:      20034 USELESS:      27109
cpu0_L2C AVERAGE MISS LATENCY: 574.3 cycles
cpu0_STLB TOTAL        ACCESS:     663860 HIT:     101831 MISS:     562029
cpu0_STLB LOAD         ACCESS:     663860 HIT:     101831 MISS:     562029
cpu0_STLB RFO          ACCESS:          0 HIT:          0 MISS:          0
cpu0_STLB PREFETCH     ACCESS:          0 HIT:          0 MISS:          0
cpu0_STLB WRITE        ACCESS:          0 HIT:          0 MISS:          0
cpu0_STLB TRANSLATION  ACCESS:          0 HIT:          0 MISS:          0
cpu0_STLB PREFETCH REQUESTED:          0 ISSUED:          0 USEFUL:          0 USELESS:          0
cpu0_STLB AVERAGE MISS LATENCY: 890.4 cycles

DRAM Statistics

Channel 0 RQ ROW_BUFFER_HIT:      71719
  ROW_BUFFER_MISS:    1079039
 AVG DBUS CONGESTED CYCLE: 3.975
WQ ROW_BUFFER_HIT: Channel 0 
  ROW_BUFFER_MISS:       2141
  FULL:     554717
OPTgen accesses: 12443
OPTgen hits: 10565
OPTgen hit rate: 84.9072


