WARNING: physical memory size is smaller than virtual memory size.

*** ChampSim Multicore Out-of-Order Simulator ***
Warmup Instructions: 25000000
Simulation Instructions: 25000000
Number of CPUs: 1
Page size: 4096

Initialize Hawkeye state
Off-chip DRAM Size: 4 GiB Channels: 1 Width: 64-bit Data Race: 800 MT/s
Heartbeat CPU 0 instructions: 10000003 cycles: 2699870 heartbeat IPC: 3.704 cumulative IPC: 3.704 (Simulation time: 00 hr 00 min 43 sec)
Heartbeat CPU 0 instructions: 20000000 cycles: 5397342 heartbeat IPC: 3.707 cumulative IPC: 3.706 (Simulation time: 00 hr 01 min 30 sec)
Warmup finished CPU 0 instructions: 25000001 cycles: 6746853 cumulative IPC: 3.705 (Simulation time: 00 hr 01 min 54 sec)
Warmup complete CPU 0 instructions: 25000001 cycles: 6746853 cumulative IPC: 3.705 (Simulation time: 00 hr 01 min 54 sec)
Heartbeat CPU 0 instructions: 30000000 cycles: 8954826 heartbeat IPC: 2.811 cumulative IPC: 2.265 (Simulation time: 00 hr 02 min 27 sec)
Heartbeat CPU 0 instructions: 40000001 cycles: 13411147 heartbeat IPC: 2.244 cumulative IPC: 2.251 (Simulation time: 00 hr 03 min 34 sec)
Heartbeat CPU 0 instructions: 50000000 cycles: 17838545 heartbeat IPC: 2.259 cumulative IPC: 2.254 (Simulation time: 00 hr 04 min 43 sec)
Simulation finished CPU 0 instructions: 25000003 cycles: 11091694 cumulative IPC: 2.254 (Simulation time: 00 hr 04 min 43 sec)
Simulation complete CPU 0 instructions: 25000003 cycles: 11091694 cumulative IPC: 2.254 (Simulation time: 00 hr 04 min 43 sec)

ChampSim completed all CPUs

=== Simulation ===
CPU 0 runs ./traces/607.cactuBSSN_s-2421B.champsimtrace.xz
Region of Interest Statistics

CPU 0 cumulative IPC: 2.254 instructions: 25000003 cycles: 11091694
CPU 0 Branch Prediction Accuracy: 91.83% MPKI: 0.728 Average ROB Occupancy at Mispredict: 300.6
Branch type MPKI
BRANCH_DIRECT_JUMP: 0
BRANCH_INDIRECT: 0
BRANCH_CONDITIONAL: 0.365
BRANCH_DIRECT_CALL: 0
BRANCH_INDIRECT_CALL: 0
BRANCH_RETURN: 0.363

LLC TOTAL        ACCESS:     253040 HIT:     186671 MISS:      66369
LLC LOAD         ACCESS:     115546 HIT:      86503 MISS:      29043
LLC RFO          ACCESS:      20736 HIT:       6011 MISS:      14725
LLC PREFETCH     ACCESS:      94201 HIT:      72423 MISS:      21778
LLC WRITE        ACCESS:      21058 HIT:      20982 MISS:         76
LLC TRANSLATION  ACCESS:       1499 HIT:        752 MISS:        747
LLC PREFETCH REQUESTED:          0 ISSUED:          0 USEFUL:          0 USELESS:          0
LLC AVERAGE MISS LATENCY: 813.2 cycles
cpu0_DTLB TOTAL        ACCESS:    6174115 HIT:    5037947 MISS:    1136168
cpu0_DTLB LOAD         ACCESS:    6174115 HIT:    5037947 MISS:    1136168
cpu0_DTLB RFO          ACCESS:          0 HIT:          0 MISS:          0
cpu0_DTLB PREFETCH     ACCESS:          0 HIT:          0 MISS:          0
cpu0_DTLB WRITE        ACCESS:          0 HIT:          0 MISS:          0
cpu0_DTLB TRANSLATION  ACCESS:          0 HIT:          0 MISS:          0
cpu0_DTLB PREFETCH REQUESTED:          0 ISSUED:          0 USEFUL:          0 USELESS:          0
cpu0_DTLB AVERAGE MISS LATENCY: 6.815 cycles
cpu0_ITLB TOTAL        ACCESS:    2993825 HIT:    2993825 MISS:          0
cpu0_ITLB LOAD         ACCESS:    2993825 HIT:    2993825 MISS:          0
cpu0_ITLB RFO          ACCESS:          0 HIT:          0 MISS:          0
cpu0_ITLB PREFETCH     ACCESS:          0 HIT:          0 MISS:          0
cpu0_ITLB WRITE        ACCESS:          0 HIT:          0 MISS:          0
cpu0_ITLB TRANSLATION  ACCESS:          0 HIT:          0 MISS:          0
cpu0_ITLB PREFETCH REQUESTED:          0 ISSUED:          0 USEFUL:          0 USELESS:          0
cpu0_ITLB AVERAGE MISS LATENCY: -nan cycles
cpu0_L1D TOTAL        ACCESS:    9292978 HIT:    7011318 MISS:    2281660
cpu0_L1D LOAD         ACCESS:    6301810 HIT:    4370351 MISS:    1931459
cpu0_L1D RFO          ACCESS:          0 HIT:          0 MISS:          0
cpu0_L1D PREFETCH     ACCESS:     971937 HIT:     825715 MISS:     146222
cpu0_L1D WRITE        ACCESS:    2017688 HIT:    1815223 MISS:     202465
cpu0_L1D TRANSLATION  ACCESS:       1543 HIT:         29 MISS:       1514
cpu0_L1D PREFETCH REQUESTED:    7258175 ISSUED:     971938 USEFUL:      14609 USELESS:     100003
cpu0_L1D AVERAGE MISS LATENCY: 33.96 cycles
cpu0_L1I TOTAL        ACCESS:    4125304 HIT:    3038690 MISS:    1086614
cpu0_L1I LOAD         ACCESS:    4125304 HIT:    3038690 MISS:    1086614
cpu0_L1I RFO          ACCESS:          0 HIT:          0 MISS:          0
cpu0_L1I PREFETCH     ACCESS:          0 HIT:          0 MISS:          0
cpu0_L1I WRITE        ACCESS:          0 HIT:          0 MISS:          0
cpu0_L1I TRANSLATION  ACCESS:          0 HIT:          0 MISS:          0
cpu0_L1I PREFETCH REQUESTED:          0 ISSUED:          0 USEFUL:          0 USELESS:          0
cpu0_L1I AVERAGE MISS LATENCY: 6.553 cycles
cpu0_L2C TOTAL        ACCESS:    3130768 HIT:    2898290 MISS:     232478
cpu0_L2C LOAD         ACCESS:    2471407 HIT:    2355859 MISS:     115548
cpu0_L2C RFO          ACCESS:     167724 HIT:     146775 MISS:      20949
cpu0_L2C PREFETCH     ACCESS:     297763 HIT:     203318 MISS:      94445
cpu0_L2C WRITE        ACCESS:     192360 HIT:     192323 MISS:         37
cpu0_L2C TRANSLATION  ACCESS:       1514 HIT:         15 MISS:       1499
cpu0_L2C PREFETCH REQUESTED:     218849 ISSUED:     183126 USEFUL:      47684 USELESS:        105
cpu0_L2C AVERAGE MISS LATENCY: 252.2 cycles
cpu0_STLB TOTAL        ACCESS:     962440 HIT:     961422 MISS:       1018
cpu0_STLB LOAD         ACCESS:     962440 HIT:     961422 MISS:       1018
cpu0_STLB RFO          ACCESS:          0 HIT:          0 MISS:          0
cpu0_STLB PREFETCH     ACCESS:          0 HIT:          0 MISS:          0
cpu0_STLB WRITE        ACCESS:          0 HIT:          0 MISS:          0
cpu0_STLB TRANSLATION  ACCESS:          0 HIT:          0 MISS:          0
cpu0_STLB PREFETCH REQUESTED:          0 ISSUED:          0 USEFUL:          0 USELESS:          0
cpu0_STLB AVERAGE MISS LATENCY: 775.5 cycles

DRAM Statistics

Channel 0 RQ ROW_BUFFER_HIT:      34756
  ROW_BUFFER_MISS:      31531
 AVG DBUS CONGESTED CYCLE: 3.862
WQ ROW_BUFFER_HIT: Channel 0 
  ROW_BUFFER_MISS:       1622
  FULL:      13106
OPTgen accesses: 1620
OPTgen hits: 1465
OPTgen hit rate: 90.4321


