WARNING: physical memory size is smaller than virtual memory size.

*** ChampSim Multicore Out-of-Order Simulator ***
Warmup Instructions: 25000000
Simulation Instructions: 25000000
Number of CPUs: 1
Page size: 4096

Initialize Hawkeye state
Off-chip DRAM Size: 4 GiB Channels: 1 Width: 64-bit Data Race: 800 MT/s
Heartbeat CPU 0 instructions: 10000002 cycles: 2704069 heartbeat IPC: 3.698 cumulative IPC: 3.698 (Simulation time: 00 hr 00 min 48 sec)
Heartbeat CPU 0 instructions: 20000001 cycles: 5407715 heartbeat IPC: 3.699 cumulative IPC: 3.698 (Simulation time: 00 hr 01 min 40 sec)
Warmup finished CPU 0 instructions: 25000001 cycles: 6759610 cumulative IPC: 3.698 (Simulation time: 00 hr 02 min 05 sec)
Warmup complete CPU 0 instructions: 25000001 cycles: 6759610 cumulative IPC: 3.698 (Simulation time: 00 hr 02 min 05 sec)
Heartbeat CPU 0 instructions: 30000003 cycles: 9016195 heartbeat IPC: 2.771 cumulative IPC: 2.216 (Simulation time: 00 hr 02 min 44 sec)
Heartbeat CPU 0 instructions: 40000000 cycles: 13634088 heartbeat IPC: 2.165 cumulative IPC: 2.182 (Simulation time: 00 hr 03 min 56 sec)
Heartbeat CPU 0 instructions: 50000000 cycles: 18510229 heartbeat IPC: 2.051 cumulative IPC: 2.128 (Simulation time: 00 hr 05 min 16 sec)
Simulation finished CPU 0 instructions: 25000003 cycles: 11750621 cumulative IPC: 2.128 (Simulation time: 00 hr 05 min 16 sec)
Simulation complete CPU 0 instructions: 25000003 cycles: 11750621 cumulative IPC: 2.128 (Simulation time: 00 hr 05 min 16 sec)

ChampSim completed all CPUs

=== Simulation ===
CPU 0 runs ./traces/607.cactuBSSN_s-3477B.champsimtrace.xz
Region of Interest Statistics

CPU 0 cumulative IPC: 2.128 instructions: 25000003 cycles: 11750621
CPU 0 Branch Prediction Accuracy: 91.83% MPKI: 0.7242 Average ROB Occupancy at Mispredict: 286
Branch type MPKI
BRANCH_DIRECT_JUMP: 0
BRANCH_INDIRECT: 4e-05
BRANCH_CONDITIONAL: 0.363
BRANCH_DIRECT_CALL: 0
BRANCH_INDIRECT_CALL: 0
BRANCH_RETURN: 0.362

LLC TOTAL        ACCESS:     263028 HIT:     187180 MISS:      75848
LLC LOAD         ACCESS:     119569 HIT:      87218 MISS:      32351
LLC RFO          ACCESS:      22699 HIT:       8072 MISS:      14627
LLC PREFETCH     ACCESS:      95922 HIT:      69054 MISS:      26868
LLC WRITE        ACCESS:      23127 HIT:      22282 MISS:        845
LLC TRANSLATION  ACCESS:       1711 HIT:        554 MISS:       1157
LLC PREFETCH REQUESTED:          0 ISSUED:          0 USEFUL:          0 USELESS:          0
LLC AVERAGE MISS LATENCY: 825.1 cycles
cpu0_DTLB TOTAL        ACCESS:    6349325 HIT:    5242919 MISS:    1106406
cpu0_DTLB LOAD         ACCESS:    6349325 HIT:    5242919 MISS:    1106406
cpu0_DTLB RFO          ACCESS:          0 HIT:          0 MISS:          0
cpu0_DTLB PREFETCH     ACCESS:          0 HIT:          0 MISS:          0
cpu0_DTLB WRITE        ACCESS:          0 HIT:          0 MISS:          0
cpu0_DTLB TRANSLATION  ACCESS:          0 HIT:          0 MISS:          0
cpu0_DTLB PREFETCH REQUESTED:          0 ISSUED:          0 USEFUL:          0 USELESS:          0
cpu0_DTLB AVERAGE MISS LATENCY: 7.344 cycles
cpu0_ITLB TOTAL        ACCESS:    3021732 HIT:    3021732 MISS:          0
cpu0_ITLB LOAD         ACCESS:    3021732 HIT:    3021732 MISS:          0
cpu0_ITLB RFO          ACCESS:          0 HIT:          0 MISS:          0
cpu0_ITLB PREFETCH     ACCESS:          0 HIT:          0 MISS:          0
cpu0_ITLB WRITE        ACCESS:          0 HIT:          0 MISS:          0
cpu0_ITLB TRANSLATION  ACCESS:          0 HIT:          0 MISS:          0
cpu0_ITLB PREFETCH REQUESTED:          0 ISSUED:          0 USEFUL:          0 USELESS:          0
cpu0_ITLB AVERAGE MISS LATENCY: -nan cycles
cpu0_L1D TOTAL        ACCESS:    9394400 HIT:    7127334 MISS:    2267066
cpu0_L1D LOAD         ACCESS:    6335409 HIT:    4422886 MISS:    1912523
cpu0_L1D RFO          ACCESS:          0 HIT:          0 MISS:          0
cpu0_L1D PREFETCH     ACCESS:    1063017 HIT:     907493 MISS:     155524
cpu0_L1D WRITE        ACCESS:    1994204 HIT:    1796941 MISS:     197263
cpu0_L1D TRANSLATION  ACCESS:       1770 HIT:         14 MISS:       1756
cpu0_L1D PREFETCH REQUESTED:    7477635 ISSUED:    1063017 USEFUL:      15563 USELESS:     107479
cpu0_L1D AVERAGE MISS LATENCY: 37.22 cycles
cpu0_L1I TOTAL        ACCESS:    4166600 HIT:    2931455 MISS:    1235145
cpu0_L1I LOAD         ACCESS:    4166600 HIT:    2931455 MISS:    1235145
cpu0_L1I RFO          ACCESS:          0 HIT:          0 MISS:          0
cpu0_L1I PREFETCH     ACCESS:          0 HIT:          0 MISS:          0
cpu0_L1I WRITE        ACCESS:          0 HIT:          0 MISS:          0
cpu0_L1I TRANSLATION  ACCESS:          0 HIT:          0 MISS:          0
cpu0_L1I PREFETCH REQUESTED:          0 ISSUED:          0 USEFUL:          0 USELESS:          0
cpu0_L1I AVERAGE MISS LATENCY: 6.436 cycles
cpu0_L2C TOTAL        ACCESS:    3197841 HIT:    2957371 MISS:     240470
cpu0_L2C LOAD         ACCESS:    2530802 HIT:    2411224 MISS:     119578
cpu0_L2C RFO          ACCESS:     169740 HIT:     146768 MISS:      22972
cpu0_L2C PREFETCH     ACCESS:     302436 HIT:     206278 MISS:      96158
cpu0_L2C WRITE        ACCESS:     193110 HIT:     193059 MISS:         51
cpu0_L2C TRANSLATION  ACCESS:       1753 HIT:         42 MISS:       1711
cpu0_L2C PREFETCH REQUESTED:     205174 ISSUED:     179368 USEFUL:      45705 USELESS:        328
cpu0_L2C AVERAGE MISS LATENCY: 278.3 cycles
cpu0_STLB TOTAL        ACCESS:     949623 HIT:     948418 MISS:       1205
cpu0_STLB LOAD         ACCESS:     949623 HIT:     948418 MISS:       1205
cpu0_STLB RFO          ACCESS:          0 HIT:          0 MISS:          0
cpu0_STLB PREFETCH     ACCESS:          0 HIT:          0 MISS:          0
cpu0_STLB WRITE        ACCESS:          0 HIT:          0 MISS:          0
cpu0_STLB TRANSLATION  ACCESS:          0 HIT:          0 MISS:          0
cpu0_STLB PREFETCH REQUESTED:          0 ISSUED:          0 USEFUL:          0 USELESS:          0
cpu0_STLB AVERAGE MISS LATENCY: 1061 cycles

DRAM Statistics

Channel 0 RQ ROW_BUFFER_HIT:      35099
  ROW_BUFFER_MISS:      39897
 AVG DBUS CONGESTED CYCLE: 3.869
WQ ROW_BUFFER_HIT: Channel 0 
  ROW_BUFFER_MISS:       1722
  FULL:      14441
OPTgen accesses: 1352
OPTgen hits: 1191
OPTgen hit rate: 88.0918


