WARNING: physical memory size is smaller than virtual memory size.

*** ChampSim Multicore Out-of-Order Simulator ***
Warmup Instructions: 25000000
Simulation Instructions: 25000000
Number of CPUs: 1
Page size: 4096

Initialize Hawkeye state
Off-chip DRAM Size: 4 GiB Channels: 1 Width: 64-bit Data Race: 800 MT/s
Heartbeat CPU 0 instructions: 10000001 cycles: 2957078 heartbeat IPC: 3.382 cumulative IPC: 3.382 (Simulation time: 00 hr 00 min 51 sec)
Heartbeat CPU 0 instructions: 20000001 cycles: 5912849 heartbeat IPC: 3.383 cumulative IPC: 3.382 (Simulation time: 00 hr 01 min 37 sec)
Warmup finished CPU 0 instructions: 25000003 cycles: 7390935 cumulative IPC: 3.383 (Simulation time: 00 hr 02 min 01 sec)
Warmup complete CPU 0 instructions: 25000003 cycles: 7390935 cumulative IPC: 3.383 (Simulation time: 00 hr 02 min 01 sec)
Heartbeat CPU 0 instructions: 30000001 cycles: 55120452 heartbeat IPC: 0.2032 cumulative IPC: 0.1048 (Simulation time: 00 hr 08 min 25 sec)
Heartbeat CPU 0 instructions: 40000002 cycles: 163658404 heartbeat IPC: 0.09213 cumulative IPC: 0.09599 (Simulation time: 00 hr 18 min 40 sec)
Heartbeat CPU 0 instructions: 50000002 cycles: 269135624 heartbeat IPC: 0.09481 cumulative IPC: 0.09551 (Simulation time: 00 hr 25 min 07 sec)
Simulation finished CPU 0 instructions: 25000003 cycles: 261744691 cumulative IPC: 0.09551 (Simulation time: 00 hr 25 min 07 sec)
Simulation complete CPU 0 instructions: 25000003 cycles: 261744691 cumulative IPC: 0.09551 (Simulation time: 00 hr 25 min 07 sec)

ChampSim completed all CPUs

=== Simulation ===
CPU 0 runs ./traces/619.lbm_s-4268B.champsimtrace.xz
Region of Interest Statistics

CPU 0 cumulative IPC: 0.09551 instructions: 25000003 cycles: 261744691
CPU 0 Branch Prediction Accuracy: 95.11% MPKI: 0.871 Average ROB Occupancy at Mispredict: 294.6
Branch type MPKI
BRANCH_DIRECT_JUMP: 0
BRANCH_INDIRECT: 0
BRANCH_CONDITIONAL: 0.871
BRANCH_DIRECT_CALL: 0
BRANCH_INDIRECT_CALL: 0
BRANCH_RETURN: 0

LLC TOTAL        ACCESS:    3436874 HIT:     843667 MISS:    2593207
LLC LOAD         ACCESS:     209780 HIT:      16327 MISS:     193453
LLC RFO          ACCESS:    1544699 HIT:     514439 MISS:    1030260
LLC PREFETCH     ACCESS:     136501 HIT:      15219 MISS:     121282
LLC WRITE        ACCESS:    1545360 HIT:     297524 MISS:    1247836
LLC TRANSLATION  ACCESS:        534 HIT:        158 MISS:        376
LLC PREFETCH REQUESTED:          0 ISSUED:          0 USEFUL:          0 USELESS:          0
LLC AVERAGE MISS LATENCY: 1497 cycles
cpu0_DTLB TOTAL        ACCESS:    5061729 HIT:    5007501 MISS:      54228
cpu0_DTLB LOAD         ACCESS:    5061729 HIT:    5007501 MISS:      54228
cpu0_DTLB RFO          ACCESS:          0 HIT:          0 MISS:          0
cpu0_DTLB PREFETCH     ACCESS:          0 HIT:          0 MISS:          0
cpu0_DTLB WRITE        ACCESS:          0 HIT:          0 MISS:          0
cpu0_DTLB TRANSLATION  ACCESS:          0 HIT:          0 MISS:          0
cpu0_DTLB PREFETCH REQUESTED:          0 ISSUED:          0 USEFUL:          0 USELESS:          0
cpu0_DTLB AVERAGE MISS LATENCY: 212.4 cycles
cpu0_ITLB TOTAL        ACCESS:          0 HIT:          0 MISS:          0
cpu0_ITLB LOAD         ACCESS:          0 HIT:          0 MISS:          0
cpu0_ITLB RFO          ACCESS:          0 HIT:          0 MISS:          0
cpu0_ITLB PREFETCH     ACCESS:          0 HIT:          0 MISS:          0
cpu0_ITLB WRITE        ACCESS:          0 HIT:          0 MISS:          0
cpu0_ITLB TRANSLATION  ACCESS:          0 HIT:          0 MISS:          0
cpu0_ITLB PREFETCH REQUESTED:          0 ISSUED:          0 USEFUL:          0 USELESS:          0
cpu0_ITLB AVERAGE MISS LATENCY: -nan cycles
cpu0_L1D TOTAL        ACCESS:    7874790 HIT:    4852939 MISS:    3021851
cpu0_L1D LOAD         ACCESS:    1650312 HIT:    1116624 MISS:     533688
cpu0_L1D RFO          ACCESS:          0 HIT:          0 MISS:          0
cpu0_L1D PREFETCH     ACCESS:    1650114 HIT:     943820 MISS:     706294
cpu0_L1D WRITE        ACCESS:    4555942 HIT:    2792466 MISS:    1763476
cpu0_L1D TRANSLATION  ACCESS:      18422 HIT:         29 MISS:      18393
cpu0_L1D PREFETCH REQUESTED:   25728606 ISSUED:    1650116 USEFUL:      69404 USELESS:       2626
cpu0_L1D AVERAGE MISS LATENCY: 1184 cycles
cpu0_L1I TOTAL        ACCESS:          0 HIT:          0 MISS:          0
cpu0_L1I LOAD         ACCESS:          0 HIT:          0 MISS:          0
cpu0_L1I RFO          ACCESS:          0 HIT:          0 MISS:          0
cpu0_L1I PREFETCH     ACCESS:          0 HIT:          0 MISS:          0
cpu0_L1I WRITE        ACCESS:          0 HIT:          0 MISS:          0
cpu0_L1I TRANSLATION  ACCESS:          0 HIT:          0 MISS:          0
cpu0_L1I PREFETCH REQUESTED:          0 ISSUED:          0 USEFUL:          0 USELESS:          0
cpu0_L1I AVERAGE MISS LATENCY: -nan cycles
cpu0_L2C TOTAL        ACCESS:    3734408 HIT:    1839846 MISS:    1894562
cpu0_L2C LOAD         ACCESS:     225382 HIT:      14889 MISS:     210493
cpu0_L2C RFO          ACCESS:    1669762 HIT:     125064 MISS:    1544698
cpu0_L2C PREFETCH     ACCESS:     151099 HIT:      12262 MISS:     138837
cpu0_L2C WRITE        ACCESS:    1669772 HIT:    1669772 MISS:          0
cpu0_L2C TRANSLATION  ACCESS:      18393 HIT:      17859 MISS:        534
cpu0_L2C PREFETCH REQUESTED:      79069 ISSUED:      79069 USEFUL:      15729 USELESS:        330
cpu0_L2C AVERAGE MISS LATENCY: 2022 cycles
cpu0_STLB TOTAL        ACCESS:      33922 HIT:      15518 MISS:      18404
cpu0_STLB LOAD         ACCESS:      33922 HIT:      15518 MISS:      18404
cpu0_STLB RFO          ACCESS:          0 HIT:          0 MISS:          0
cpu0_STLB PREFETCH     ACCESS:          0 HIT:          0 MISS:          0
cpu0_STLB WRITE        ACCESS:          0 HIT:          0 MISS:          0
cpu0_STLB TRANSLATION  ACCESS:          0 HIT:          0 MISS:          0
cpu0_STLB PREFETCH REQUESTED:          0 ISSUED:          0 USEFUL:          0 USELESS:          0
cpu0_STLB AVERAGE MISS LATENCY: 763.7 cycles

DRAM Statistics

Channel 0 RQ ROW_BUFFER_HIT:     101338
  ROW_BUFFER_MISS:    1219794
 AVG DBUS CONGESTED CYCLE: 3.983
WQ ROW_BUFFER_HIT: Channel 0 
  ROW_BUFFER_MISS:      81574
  FULL:    1338730
OPTgen accesses: 12372
OPTgen hits: 4186
OPTgen hit rate: 33.8345


