WARNING: physical memory size is smaller than virtual memory size.

*** ChampSim Multicore Out-of-Order Simulator ***
Warmup Instructions: 25000000
Simulation Instructions: 25000000
Number of CPUs: 1
Page size: 4096

Initialize Hawkeye state
Off-chip DRAM Size: 4 GiB Channels: 1 Width: 64-bit Data Race: 800 MT/s
Heartbeat CPU 0 instructions: 10000000 cycles: 2963527 heartbeat IPC: 3.374 cumulative IPC: 3.374 (Simulation time: 00 hr 00 min 47 sec)
Heartbeat CPU 0 instructions: 20000000 cycles: 5908108 heartbeat IPC: 3.396 cumulative IPC: 3.385 (Simulation time: 00 hr 01 min 28 sec)
Warmup finished CPU 0 instructions: 25000003 cycles: 7393754 cumulative IPC: 3.381 (Simulation time: 00 hr 01 min 49 sec)
Warmup complete CPU 0 instructions: 25000003 cycles: 7393754 cumulative IPC: 3.381 (Simulation time: 00 hr 01 min 49 sec)
Heartbeat CPU 0 instructions: 30000001 cycles: 59269487 heartbeat IPC: 0.1874 cumulative IPC: 0.09638 (Simulation time: 00 hr 06 min 37 sec)
Heartbeat CPU 0 instructions: 40000001 cycles: 163481001 heartbeat IPC: 0.09596 cumulative IPC: 0.0961 (Simulation time: 00 hr 13 min 31 sec)
Heartbeat CPU 0 instructions: 50000001 cycles: 268015021 heartbeat IPC: 0.09566 cumulative IPC: 0.09592 (Simulation time: 00 hr 18 min 31 sec)
Simulation finished CPU 0 instructions: 25000002 cycles: 260621269 cumulative IPC: 0.09592 (Simulation time: 00 hr 18 min 31 sec)
Simulation complete CPU 0 instructions: 25000002 cycles: 260621269 cumulative IPC: 0.09592 (Simulation time: 00 hr 18 min 31 sec)

ChampSim completed all CPUs

=== Simulation ===
CPU 0 runs ./traces/619.lbm_s-2677B.champsimtrace.xz
Region of Interest Statistics

CPU 0 cumulative IPC: 0.09592 instructions: 25000002 cycles: 260621269
CPU 0 Branch Prediction Accuracy: 95.14% MPKI: 0.8683 Average ROB Occupancy at Mispredict: 293.9
Branch type MPKI
BRANCH_DIRECT_JUMP: 0
BRANCH_INDIRECT: 0
BRANCH_CONDITIONAL: 0.868
BRANCH_DIRECT_CALL: 0
BRANCH_INDIRECT_CALL: 0
BRANCH_RETURN: 0

LLC TOTAL        ACCESS:    3455635 HIT:     913059 MISS:    2542576
LLC LOAD         ACCESS:     210512 HIT:      16767 MISS:     193745
LLC RFO          ACCESS:    1552595 HIT:     528394 MISS:    1024201
LLC PREFETCH     ACCESS:     138139 HIT:      15790 MISS:     122349
LLC WRITE        ACCESS:    1553846 HIT:     351924 MISS:    1201922
LLC TRANSLATION  ACCESS:        543 HIT:        184 MISS:        359
LLC PREFETCH REQUESTED:          0 ISSUED:          0 USEFUL:          0 USELESS:          0
LLC AVERAGE MISS LATENCY: 1520 cycles
cpu0_DTLB TOTAL        ACCESS:    5072826 HIT:    5018567 MISS:      54259
cpu0_DTLB LOAD         ACCESS:    5072826 HIT:    5018567 MISS:      54259
cpu0_DTLB RFO          ACCESS:          0 HIT:          0 MISS:          0
cpu0_DTLB PREFETCH     ACCESS:          0 HIT:          0 MISS:          0
cpu0_DTLB WRITE        ACCESS:          0 HIT:          0 MISS:          0
cpu0_DTLB TRANSLATION  ACCESS:          0 HIT:          0 MISS:          0
cpu0_DTLB PREFETCH REQUESTED:          0 ISSUED:          0 USEFUL:          0 USELESS:          0
cpu0_DTLB AVERAGE MISS LATENCY: 217 cycles
cpu0_ITLB TOTAL        ACCESS:          0 HIT:          0 MISS:          0
cpu0_ITLB LOAD         ACCESS:          0 HIT:          0 MISS:          0
cpu0_ITLB RFO          ACCESS:          0 HIT:          0 MISS:          0
cpu0_ITLB PREFETCH     ACCESS:          0 HIT:          0 MISS:          0
cpu0_ITLB WRITE        ACCESS:          0 HIT:          0 MISS:          0
cpu0_ITLB TRANSLATION  ACCESS:          0 HIT:          0 MISS:          0
cpu0_ITLB PREFETCH REQUESTED:          0 ISSUED:          0 USEFUL:          0 USELESS:          0
cpu0_ITLB AVERAGE MISS LATENCY: -nan cycles
cpu0_L1D TOTAL        ACCESS:    7892338 HIT:    4856633 MISS:    3035705
cpu0_L1D LOAD         ACCESS:    1657256 HIT:    1117728 MISS:     539528
cpu0_L1D RFO          ACCESS:          0 HIT:          0 MISS:          0
cpu0_L1D PREFETCH     ACCESS:    1654851 HIT:     946262 MISS:     708589
cpu0_L1D WRITE        ACCESS:    4561737 HIT:    2792624 MISS:    1769113
cpu0_L1D TRANSLATION  ACCESS:      18494 HIT:         19 MISS:      18475
cpu0_L1D PREFETCH REQUESTED:   25701037 ISSUED:    1654853 USEFUL:      69695 USELESS:       2665
cpu0_L1D AVERAGE MISS LATENCY: 1171 cycles
cpu0_L1I TOTAL        ACCESS:          0 HIT:          0 MISS:          0
cpu0_L1I LOAD         ACCESS:          0 HIT:          0 MISS:          0
cpu0_L1I RFO          ACCESS:          0 HIT:          0 MISS:          0
cpu0_L1I PREFETCH     ACCESS:          0 HIT:          0 MISS:          0
cpu0_L1I WRITE        ACCESS:          0 HIT:          0 MISS:          0
cpu0_L1I TRANSLATION  ACCESS:          0 HIT:          0 MISS:          0
cpu0_L1I PREFETCH REQUESTED:          0 ISSUED:          0 USEFUL:          0 USELESS:          0
cpu0_L1I AVERAGE MISS LATENCY: -nan cycles
cpu0_L2C TOTAL        ACCESS:    3748239 HIT:    1843290 MISS:    1904949
cpu0_L2C LOAD         ACCESS:     226171 HIT:      14968 MISS:     211203
cpu0_L2C RFO          ACCESS:    1675336 HIT:     122742 MISS:    1552594
cpu0_L2C PREFETCH     ACCESS:     152906 HIT:      12297 MISS:     140609
cpu0_L2C WRITE        ACCESS:    1675351 HIT:    1675351 MISS:          0
cpu0_L2C TRANSLATION  ACCESS:      18475 HIT:      17932 MISS:        543
cpu0_L2C PREFETCH REQUESTED:      80544 ISSUED:      80544 USEFUL:      15892 USELESS:        344
cpu0_L2C AVERAGE MISS LATENCY: 2002 cycles
cpu0_STLB TOTAL        ACCESS:      34048 HIT:      15572 MISS:      18476
cpu0_STLB LOAD         ACCESS:      34048 HIT:      15572 MISS:      18476
cpu0_STLB RFO          ACCESS:          0 HIT:          0 MISS:          0
cpu0_STLB PREFETCH     ACCESS:          0 HIT:          0 MISS:          0
cpu0_STLB WRITE        ACCESS:          0 HIT:          0 MISS:          0
cpu0_STLB TRANSLATION  ACCESS:          0 HIT:          0 MISS:          0
cpu0_STLB PREFETCH REQUESTED:          0 ISSUED:          0 USEFUL:          0 USELESS:          0
cpu0_STLB AVERAGE MISS LATENCY: 769.2 cycles

DRAM Statistics

Channel 0 RQ ROW_BUFFER_HIT:      98019
  ROW_BUFFER_MISS:    1218541
 AVG DBUS CONGESTED CYCLE: 3.984
WQ ROW_BUFFER_HIT: Channel 0 
  ROW_BUFFER_MISS:      77944
  FULL:    1340566
OPTgen accesses: 12148
OPTgen hits: 3768
OPTgen hit rate: 31.0175


