WARNING: physical memory size is smaller than virtual memory size.

*** ChampSim Multicore Out-of-Order Simulator ***
Warmup Instructions: 25000000
Simulation Instructions: 25000000
Number of CPUs: 1
Page size: 4096

Initialize Hawkeye state
Off-chip DRAM Size: 4 GiB Channels: 1 Width: 64-bit Data Race: 800 MT/s
Heartbeat CPU 0 instructions: 10000002 cycles: 2920623 heartbeat IPC: 3.424 cumulative IPC: 3.424 (Simulation time: 00 hr 00 min 51 sec)
Heartbeat CPU 0 instructions: 20000002 cycles: 5829582 heartbeat IPC: 3.438 cumulative IPC: 3.431 (Simulation time: 00 hr 01 min 41 sec)
Warmup finished CPU 0 instructions: 25000000 cycles: 7287977 cumulative IPC: 3.43 (Simulation time: 00 hr 02 min 05 sec)
Warmup complete CPU 0 instructions: 25000000 cycles: 7287977 cumulative IPC: 3.43 (Simulation time: 00 hr 02 min 05 sec)
Heartbeat CPU 0 instructions: 30000000 cycles: 49816757 heartbeat IPC: 0.2273 cumulative IPC: 0.1176 (Simulation time: 00 hr 07 min 47 sec)
Heartbeat CPU 0 instructions: 40000002 cycles: 137557579 heartbeat IPC: 0.114 cumulative IPC: 0.1151 (Simulation time: 00 hr 17 min 26 sec)
Heartbeat CPU 0 instructions: 50000002 cycles: 222772586 heartbeat IPC: 0.1174 cumulative IPC: 0.116 (Simulation time: 00 hr 23 min 22 sec)
Simulation finished CPU 0 instructions: 25000002 cycles: 215484610 cumulative IPC: 0.116 (Simulation time: 00 hr 23 min 22 sec)
Simulation complete CPU 0 instructions: 25000002 cycles: 215484610 cumulative IPC: 0.116 (Simulation time: 00 hr 23 min 22 sec)

ChampSim completed all CPUs

=== Simulation ===
CPU 0 runs ./traces/619.lbm_s-2676B.champsimtrace.xz
Region of Interest Statistics

CPU 0 cumulative IPC: 0.116 instructions: 25000002 cycles: 215484610
CPU 0 Branch Prediction Accuracy: 96.12% MPKI: 0.6142 Average ROB Occupancy at Mispredict: 294.9
Branch type MPKI
BRANCH_DIRECT_JUMP: 0
BRANCH_INDIRECT: 0
BRANCH_CONDITIONAL: 0.614
BRANCH_DIRECT_CALL: 0
BRANCH_INDIRECT_CALL: 0
BRANCH_RETURN: 0

LLC TOTAL        ACCESS:    2881444 HIT:     768697 MISS:    2112747
LLC LOAD         ACCESS:     167864 HIT:      11741 MISS:     156123
LLC RFO          ACCESS:    1295339 HIT:     430830 MISS:     864509
LLC PREFETCH     ACCESS:     120790 HIT:      11329 MISS:     109461
LLC WRITE        ACCESS:    1296861 HIT:     314568 MISS:     982293
LLC TRANSLATION  ACCESS:        590 HIT:        229 MISS:        361
LLC PREFETCH REQUESTED:          0 ISSUED:          0 USEFUL:          0 USELESS:          0
LLC AVERAGE MISS LATENCY: 1492 cycles
cpu0_DTLB TOTAL        ACCESS:    4831545 HIT:    4786158 MISS:      45387
cpu0_DTLB LOAD         ACCESS:    4831545 HIT:    4786158 MISS:      45387
cpu0_DTLB RFO          ACCESS:          0 HIT:          0 MISS:          0
cpu0_DTLB PREFETCH     ACCESS:          0 HIT:          0 MISS:          0
cpu0_DTLB WRITE        ACCESS:          0 HIT:          0 MISS:          0
cpu0_DTLB TRANSLATION  ACCESS:          0 HIT:          0 MISS:          0
cpu0_DTLB PREFETCH REQUESTED:          0 ISSUED:          0 USEFUL:          0 USELESS:          0
cpu0_DTLB AVERAGE MISS LATENCY: 199.4 cycles
cpu0_ITLB TOTAL        ACCESS:          0 HIT:          0 MISS:          0
cpu0_ITLB LOAD         ACCESS:          0 HIT:          0 MISS:          0
cpu0_ITLB RFO          ACCESS:          0 HIT:          0 MISS:          0
cpu0_ITLB PREFETCH     ACCESS:          0 HIT:          0 MISS:          0
cpu0_ITLB WRITE        ACCESS:          0 HIT:          0 MISS:          0
cpu0_ITLB TRANSLATION  ACCESS:          0 HIT:          0 MISS:          0
cpu0_ITLB PREFETCH REQUESTED:          0 ISSUED:          0 USEFUL:          0 USELESS:          0
cpu0_ITLB AVERAGE MISS LATENCY: -nan cycles
cpu0_L1D TOTAL        ACCESS:    7662706 HIT:    4991050 MISS:    2671656
cpu0_L1D LOAD         ACCESS:    1658942 HIT:    1181802 MISS:     477140
cpu0_L1D RFO          ACCESS:          0 HIT:          0 MISS:          0
cpu0_L1D PREFETCH     ACCESS:    1663239 HIT:     982270 MISS:     680969
cpu0_L1D WRITE        ACCESS:    4324868 HIT:    2826954 MISS:    1497914
cpu0_L1D TRANSLATION  ACCESS:      15657 HIT:         24 MISS:      15633
cpu0_L1D PREFETCH REQUESTED:   19063643 ISSUED:    1663242 USEFUL:      64792 USELESS:       2224
cpu0_L1D AVERAGE MISS LATENCY: 1085 cycles
cpu0_L1I TOTAL        ACCESS:          0 HIT:          0 MISS:          0
cpu0_L1I LOAD         ACCESS:          0 HIT:          0 MISS:          0
cpu0_L1I RFO          ACCESS:          0 HIT:          0 MISS:          0
cpu0_L1I PREFETCH     ACCESS:          0 HIT:          0 MISS:          0
cpu0_L1I WRITE        ACCESS:          0 HIT:          0 MISS:          0
cpu0_L1I TRANSLATION  ACCESS:          0 HIT:          0 MISS:          0
cpu0_L1I PREFETCH REQUESTED:          0 ISSUED:          0 USEFUL:          0 USELESS:          0
cpu0_L1I AVERAGE MISS LATENCY: -nan cycles
cpu0_L2C TOTAL        ACCESS:    3171501 HIT:    1584262 MISS:    1587239
cpu0_L2C LOAD         ACCESS:     185551 HIT:      17072 MISS:     168479
cpu0_L2C RFO          ACCESS:    1415413 HIT:     120074 MISS:    1295339
cpu0_L2C PREFETCH     ACCESS:     139478 HIT:      16647 MISS:     122831
cpu0_L2C WRITE        ACCESS:    1415426 HIT:    1415426 MISS:          0
cpu0_L2C TRANSLATION  ACCESS:      15633 HIT:      15043 MISS:        590
cpu0_L2C PREFETCH REQUESTED:      72461 ISSUED:      72461 USEFUL:      17946 USELESS:        319
cpu0_L2C AVERAGE MISS LATENCY: 1966 cycles
cpu0_STLB TOTAL        ACCESS:      28825 HIT:      13183 MISS:      15642
cpu0_STLB LOAD         ACCESS:      28825 HIT:      13183 MISS:      15642
cpu0_STLB RFO          ACCESS:          0 HIT:          0 MISS:          0
cpu0_STLB PREFETCH     ACCESS:          0 HIT:          0 MISS:          0
cpu0_STLB WRITE        ACCESS:          0 HIT:          0 MISS:          0
cpu0_STLB TRANSLATION  ACCESS:          0 HIT:          0 MISS:          0
cpu0_STLB PREFETCH REQUESTED:          0 ISSUED:          0 USEFUL:          0 USELESS:          0
cpu0_STLB AVERAGE MISS LATENCY: 708.3 cycles

DRAM Statistics

Channel 0 RQ ROW_BUFFER_HIT:      83831
  ROW_BUFFER_MISS:    1028839
 AVG DBUS CONGESTED CYCLE: 3.985
WQ ROW_BUFFER_HIT: Channel 0 
  ROW_BUFFER_MISS:      63668
  FULL:    1090137
OPTgen accesses: 10517
OPTgen hits: 3228
OPTgen hit rate: 30.6932


