WARNING: physical memory size is smaller than virtual memory size.

*** ChampSim Multicore Out-of-Order Simulator ***
Warmup Instructions: 25000000
Simulation Instructions: 25000000
Number of CPUs: 1
Page size: 4096

Initialize Hawkeye state
Off-chip DRAM Size: 4 GiB Channels: 1 Width: 64-bit Data Race: 800 MT/s
Heartbeat CPU 0 instructions: 10000003 cycles: 2500085 heartbeat IPC: 4 cumulative IPC: 4 (Simulation time: 00 hr 00 min 32 sec)
Heartbeat CPU 0 instructions: 20000002 cycles: 5008076 heartbeat IPC: 3.987 cumulative IPC: 3.994 (Simulation time: 00 hr 01 min 09 sec)
Warmup finished CPU 0 instructions: 25000002 cycles: 6258077 cumulative IPC: 3.995 (Simulation time: 00 hr 01 min 28 sec)
Warmup complete CPU 0 instructions: 25000002 cycles: 6258077 cumulative IPC: 3.995 (Simulation time: 00 hr 01 min 28 sec)
Heartbeat CPU 0 instructions: 30000002 cycles: 27251515 heartbeat IPC: 0.4496 cumulative IPC: 0.2382 (Simulation time: 00 hr 04 min 08 sec)
Heartbeat CPU 0 instructions: 40000000 cycles: 68569578 heartbeat IPC: 0.242 cumulative IPC: 0.2407 (Simulation time: 00 hr 09 min 44 sec)
Heartbeat CPU 0 instructions: 50000002 cycles: 117276362 heartbeat IPC: 0.2053 cumulative IPC: 0.2252 (Simulation time: 00 hr 16 min 18 sec)
Simulation finished CPU 0 instructions: 25000000 cycles: 111018286 cumulative IPC: 0.2252 (Simulation time: 00 hr 16 min 18 sec)
Simulation complete CPU 0 instructions: 25000000 cycles: 111018286 cumulative IPC: 0.2252 (Simulation time: 00 hr 16 min 18 sec)

ChampSim completed all CPUs

=== Simulation ===
CPU 0 runs ./traces/619.lbm_s-3766B.champsimtrace.xz
Region of Interest Statistics

CPU 0 cumulative IPC: 0.2252 instructions: 25000000 cycles: 111018286
CPU 0 Branch Prediction Accuracy: 99.7% MPKI: 0.03212 Average ROB Occupancy at Mispredict: 260.1
Branch type MPKI
BRANCH_DIRECT_JUMP: 0
BRANCH_INDIRECT: 0
BRANCH_CONDITIONAL: 0.0321
BRANCH_DIRECT_CALL: 0
BRANCH_INDIRECT_CALL: 0
BRANCH_RETURN: 0

LLC TOTAL        ACCESS:    1387098 HIT:     307155 MISS:    1079943
LLC LOAD         ACCESS:      63383 HIT:        748 MISS:      62635
LLC RFO          ACCESS:     623044 HIT:     114287 MISS:     508757
LLC PREFETCH     ACCESS:      75998 HIT:       1203 MISS:      74795
LLC WRITE        ACCESS:     624233 HIT:     190692 MISS:     433541
LLC TRANSLATION  ACCESS:        440 HIT:        225 MISS:        215
LLC PREFETCH REQUESTED:          0 ISSUED:          0 USEFUL:          0 USELESS:          0
LLC AVERAGE MISS LATENCY: 1414 cycles
cpu0_DTLB TOTAL        ACCESS:    4151119 HIT:    4128361 MISS:      22758
cpu0_DTLB LOAD         ACCESS:    4151119 HIT:    4128361 MISS:      22758
cpu0_DTLB RFO          ACCESS:          0 HIT:          0 MISS:          0
cpu0_DTLB PREFETCH     ACCESS:          0 HIT:          0 MISS:          0
cpu0_DTLB WRITE        ACCESS:          0 HIT:          0 MISS:          0
cpu0_DTLB TRANSLATION  ACCESS:          0 HIT:          0 MISS:          0
cpu0_DTLB PREFETCH REQUESTED:          0 ISSUED:          0 USEFUL:          0 USELESS:          0
cpu0_DTLB AVERAGE MISS LATENCY: 180.6 cycles
cpu0_ITLB TOTAL        ACCESS:          0 HIT:          0 MISS:          0
cpu0_ITLB LOAD         ACCESS:          0 HIT:          0 MISS:          0
cpu0_ITLB RFO          ACCESS:          0 HIT:          0 MISS:          0
cpu0_ITLB PREFETCH     ACCESS:          0 HIT:          0 MISS:          0
cpu0_ITLB WRITE        ACCESS:          0 HIT:          0 MISS:          0
cpu0_ITLB TRANSLATION  ACCESS:          0 HIT:          0 MISS:          0
cpu0_ITLB PREFETCH REQUESTED:          0 ISSUED:          0 USEFUL:          0 USELESS:          0
cpu0_ITLB AVERAGE MISS LATENCY: -nan cycles
cpu0_L1D TOTAL        ACCESS:    6959131 HIT:    5217399 MISS:    1741732
cpu0_L1D LOAD         ACCESS:    1616602 HIT:    1288884 MISS:     327718
cpu0_L1D RFO          ACCESS:          0 HIT:          0 MISS:          0
cpu0_L1D PREFETCH     ACCESS:    1622231 HIT:    1034933 MISS:     587298
cpu0_L1D WRITE        ACCESS:    3711822 HIT:    2893580 MISS:     818242
cpu0_L1D TRANSLATION  ACCESS:       8476 HIT:          2 MISS:       8474
cpu0_L1D PREFETCH REQUESTED:    3133845 ISSUED:    1622231 USEFUL:      52474 USELESS:       1264
cpu0_L1D AVERAGE MISS LATENCY: 802.9 cycles
cpu0_L1I TOTAL        ACCESS:          0 HIT:          0 MISS:          0
cpu0_L1I LOAD         ACCESS:          0 HIT:          0 MISS:          0
cpu0_L1I RFO          ACCESS:          0 HIT:          0 MISS:          0
cpu0_L1I PREFETCH     ACCESS:          0 HIT:          0 MISS:          0
cpu0_L1I WRITE        ACCESS:          0 HIT:          0 MISS:          0
cpu0_L1I TRANSLATION  ACCESS:          0 HIT:          0 MISS:          0
cpu0_L1I PREFETCH REQUESTED:          0 ISSUED:          0 USEFUL:          0 USELESS:          0
cpu0_L1I AVERAGE MISS LATENCY: -nan cycles
cpu0_L2C TOTAL        ACCESS:    1737771 HIT:     974454 MISS:     763317
cpu0_L2C LOAD         ACCESS:      82965 HIT:      19561 MISS:      63404
cpu0_L2C RFO          ACCESS:     768755 HIT:     145710 MISS:     623045
cpu0_L2C PREFETCH     ACCESS:     108832 HIT:      32404 MISS:      76428
cpu0_L2C WRITE        ACCESS:     768745 HIT:     768745 MISS:          0
cpu0_L2C TRANSLATION  ACCESS:       8474 HIT:       8034 MISS:        440
cpu0_L2C PREFETCH REQUESTED:      55095 ISSUED:      55095 USEFUL:      19809 USELESS:        153
cpu0_L2C AVERAGE MISS LATENCY: 2014 cycles
cpu0_STLB TOTAL        ACCESS:      15602 HIT:       7134 MISS:       8468
cpu0_STLB LOAD         ACCESS:      15602 HIT:       7134 MISS:       8468
cpu0_STLB RFO          ACCESS:          0 HIT:          0 MISS:          0
cpu0_STLB PREFETCH     ACCESS:          0 HIT:          0 MISS:          0
cpu0_STLB WRITE        ACCESS:          0 HIT:          0 MISS:          0
cpu0_STLB TRANSLATION  ACCESS:          0 HIT:          0 MISS:          0
cpu0_STLB PREFETCH REQUESTED:          0 ISSUED:          0 USEFUL:          0 USELESS:          0
cpu0_STLB AVERAGE MISS LATENCY: 519 cycles

DRAM Statistics

Channel 0 RQ ROW_BUFFER_HIT:      44194
  ROW_BUFFER_MISS:     593842
 AVG DBUS CONGESTED CYCLE: 3.989
WQ ROW_BUFFER_HIT: Channel 0 
  ROW_BUFFER_MISS:      26980
  FULL:     543872
OPTgen accesses: 5028
OPTgen hits: 1387
OPTgen hit rate: 27.5856


