WARNING: physical memory size is smaller than virtual memory size.

*** ChampSim Multicore Out-of-Order Simulator ***
Warmup Instructions: 25000000
Simulation Instructions: 25000000
Number of CPUs: 1
Page size: 4096

Initialize Hawkeye state
Off-chip DRAM Size: 4 GiB Channels: 1 Width: 64-bit Data Race: 800 MT/s
Heartbeat CPU 0 instructions: 10000003 cycles: 2500092 heartbeat IPC: 4 cumulative IPC: 4 (Simulation time: 00 hr 00 min 47 sec)
Heartbeat CPU 0 instructions: 20000003 cycles: 5002123 heartbeat IPC: 3.997 cumulative IPC: 3.998 (Simulation time: 00 hr 01 min 29 sec)
Warmup finished CPU 0 instructions: 25000001 cycles: 6252180 cumulative IPC: 3.999 (Simulation time: 00 hr 01 min 49 sec)
Warmup complete CPU 0 instructions: 25000001 cycles: 6252180 cumulative IPC: 3.999 (Simulation time: 00 hr 01 min 49 sec)
Heartbeat CPU 0 instructions: 30000001 cycles: 10596005 heartbeat IPC: 1.788 cumulative IPC: 1.151 (Simulation time: 00 hr 02 min 42 sec)
Heartbeat CPU 0 instructions: 40000000 cycles: 46451541 heartbeat IPC: 0.2789 cumulative IPC: 0.3731 (Simulation time: 00 hr 08 min 20 sec)
Heartbeat CPU 0 instructions: 50000003 cycles: 66944308 heartbeat IPC: 0.488 cumulative IPC: 0.4119 (Simulation time: 00 hr 11 min 36 sec)
Simulation finished CPU 0 instructions: 25000002 cycles: 60692129 cumulative IPC: 0.4119 (Simulation time: 00 hr 11 min 36 sec)
Simulation complete CPU 0 instructions: 25000002 cycles: 60692129 cumulative IPC: 0.4119 (Simulation time: 00 hr 11 min 36 sec)

ChampSim completed all CPUs

=== Simulation ===
CPU 0 runs ./traces/621.wrf_s-6673B.champsimtrace.xz
Region of Interest Statistics

CPU 0 cumulative IPC: 0.4119 instructions: 25000002 cycles: 60692129
CPU 0 Branch Prediction Accuracy: 96.82% MPKI: 2.139 Average ROB Occupancy at Mispredict: 302.2
Branch type MPKI
BRANCH_DIRECT_JUMP: 0.00072
BRANCH_INDIRECT: 0
BRANCH_CONDITIONAL: 2.12
BRANCH_DIRECT_CALL: 0.00672
BRANCH_INDIRECT_CALL: 0
BRANCH_RETURN: 0.0062

LLC TOTAL        ACCESS:     953430 HIT:     120690 MISS:     832740
LLC LOAD         ACCESS:     169027 HIT:      21164 MISS:     147863
LLC RFO          ACCESS:     135256 HIT:       8614 MISS:     126642
LLC PREFETCH     ACCESS:     403246 HIT:      35105 MISS:     368141
LLC WRITE        ACCESS:     244995 HIT:      55694 MISS:     189301
LLC TRANSLATION  ACCESS:        906 HIT:        113 MISS:        793
LLC PREFETCH REQUESTED:          0 ISSUED:          0 USEFUL:          0 USELESS:          0
LLC AVERAGE MISS LATENCY: 962.6 cycles
cpu0_DTLB TOTAL        ACCESS:    6172896 HIT:    6103910 MISS:      68986
cpu0_DTLB LOAD         ACCESS:    6172896 HIT:    6103910 MISS:      68986
cpu0_DTLB RFO          ACCESS:          0 HIT:          0 MISS:          0
cpu0_DTLB PREFETCH     ACCESS:          0 HIT:          0 MISS:          0
cpu0_DTLB WRITE        ACCESS:          0 HIT:          0 MISS:          0
cpu0_DTLB TRANSLATION  ACCESS:          0 HIT:          0 MISS:          0
cpu0_DTLB PREFETCH REQUESTED:          0 ISSUED:          0 USEFUL:          0 USELESS:          0
cpu0_DTLB AVERAGE MISS LATENCY: 31.05 cycles
cpu0_ITLB TOTAL        ACCESS:       7121 HIT:       7014 MISS:        107
cpu0_ITLB LOAD         ACCESS:       7121 HIT:       7014 MISS:        107
cpu0_ITLB RFO          ACCESS:          0 HIT:          0 MISS:          0
cpu0_ITLB PREFETCH     ACCESS:          0 HIT:          0 MISS:          0
cpu0_ITLB WRITE        ACCESS:          0 HIT:          0 MISS:          0
cpu0_ITLB TRANSLATION  ACCESS:          0 HIT:          0 MISS:          0
cpu0_ITLB PREFETCH REQUESTED:          0 ISSUED:          0 USEFUL:          0 USELESS:          0
cpu0_ITLB AVERAGE MISS LATENCY: 290 cycles
cpu0_L1D TOTAL        ACCESS:   10303708 HIT:    6459407 MISS:    3844301
cpu0_L1D LOAD         ACCESS:    5475368 HIT:    3730125 MISS:    1745243
cpu0_L1D RFO          ACCESS:          0 HIT:          0 MISS:          0
cpu0_L1D PREFETCH     ACCESS:    2956278 HIT:    1665789 MISS:    1290489
cpu0_L1D WRITE        ACCESS:    1864225 HIT:    1059245 MISS:     804980
cpu0_L1D TRANSLATION  ACCESS:       7837 HIT:       4248 MISS:       3589
cpu0_L1D PREFETCH REQUESTED:   15976252 ISSUED:    2956282 USEFUL:     288744 USELESS:      21340
cpu0_L1D AVERAGE MISS LATENCY: 148.5 cycles
cpu0_L1I TOTAL        ACCESS:       9360 HIT:       7689 MISS:       1671
cpu0_L1I LOAD         ACCESS:       9360 HIT:       7689 MISS:       1671
cpu0_L1I RFO          ACCESS:          0 HIT:          0 MISS:          0
cpu0_L1I PREFETCH     ACCESS:          0 HIT:          0 MISS:          0
cpu0_L1I WRITE        ACCESS:          0 HIT:          0 MISS:          0
cpu0_L1I TRANSLATION  ACCESS:          0 HIT:          0 MISS:          0
cpu0_L1I PREFETCH REQUESTED:          0 ISSUED:          0 USEFUL:          0 USELESS:          0
cpu0_L1I AVERAGE MISS LATENCY: 481.2 cycles
cpu0_L2C TOTAL        ACCESS:    1262662 HIT:     510809 MISS:     751853
cpu0_L2C LOAD         ACCESS:     238223 HIT:      57425 MISS:     180798
cpu0_L2C RFO          ACCESS:     162537 HIT:      27253 MISS:     135284
cpu0_L2C PREFETCH     ACCESS:     557165 HIT:     122384 MISS:     434781
cpu0_L2C WRITE        ACCESS:     301409 HIT:     301325 MISS:         84
cpu0_L2C TRANSLATION  ACCESS:       3328 HIT:       2422 MISS:        906
cpu0_L2C PREFETCH REQUESTED:     247091 ISSUED:     247090 USEFUL:      31744 USELESS:      10786
cpu0_L2C AVERAGE MISS LATENCY: 991.2 cycles
cpu0_STLB TOTAL        ACCESS:      23599 HIT:      15696 MISS:       7903
cpu0_STLB LOAD         ACCESS:      23599 HIT:      15696 MISS:       7903
cpu0_STLB RFO          ACCESS:          0 HIT:          0 MISS:          0
cpu0_STLB PREFETCH     ACCESS:          0 HIT:          0 MISS:          0
cpu0_STLB WRITE        ACCESS:          0 HIT:          0 MISS:          0
cpu0_STLB TRANSLATION  ACCESS:          0 HIT:          0 MISS:          0
cpu0_STLB PREFETCH REQUESTED:          0 ISSUED:          0 USEFUL:          0 USELESS:          0
cpu0_STLB AVERAGE MISS LATENCY: 397.5 cycles

DRAM Statistics

Channel 0 RQ ROW_BUFFER_HIT:     164078
  ROW_BUFFER_MISS:     374229
 AVG DBUS CONGESTED CYCLE: 3.925
WQ ROW_BUFFER_HIT: Channel 0 
  ROW_BUFFER_MISS:      25277
  FULL:     217278
OPTgen accesses: 1488
OPTgen hits: 521
OPTgen hit rate: 35.0135


