WARNING: physical memory size is smaller than virtual memory size.

*** ChampSim Multicore Out-of-Order Simulator ***
Warmup Instructions: 25000000
Simulation Instructions: 25000000
Number of CPUs: 1
Page size: 4096

Initialize Hawkeye state
Off-chip DRAM Size: 4 GiB Channels: 1 Width: 64-bit Data Race: 800 MT/s
Heartbeat CPU 0 instructions: 10000001 cycles: 2500075 heartbeat IPC: 4 cumulative IPC: 4 (Simulation time: 00 hr 00 min 29 sec)
Heartbeat CPU 0 instructions: 20000001 cycles: 5000075 heartbeat IPC: 4 cumulative IPC: 4 (Simulation time: 00 hr 01 min 03 sec)
Warmup finished CPU 0 instructions: 25000001 cycles: 6250076 cumulative IPC: 4 (Simulation time: 00 hr 01 min 20 sec)
Warmup complete CPU 0 instructions: 25000001 cycles: 6250076 cumulative IPC: 4 (Simulation time: 00 hr 01 min 20 sec)
Heartbeat CPU 0 instructions: 30000001 cycles: 9126011 heartbeat IPC: 2.424 cumulative IPC: 1.739 (Simulation time: 00 hr 01 min 48 sec)
Heartbeat CPU 0 instructions: 40000002 cycles: 14585342 heartbeat IPC: 1.832 cumulative IPC: 1.8 (Simulation time: 00 hr 02 min 44 sec)
Heartbeat CPU 0 instructions: 50000000 cycles: 20016446 heartbeat IPC: 1.841 cumulative IPC: 1.816 (Simulation time: 00 hr 03 min 37 sec)
Simulation finished CPU 0 instructions: 25000002 cycles: 13766372 cumulative IPC: 1.816 (Simulation time: 00 hr 03 min 37 sec)
Simulation complete CPU 0 instructions: 25000002 cycles: 13766372 cumulative IPC: 1.816 (Simulation time: 00 hr 03 min 37 sec)

ChampSim completed all CPUs

=== Simulation ===
CPU 0 runs ./traces/623.xalancbmk_s-165B.champsimtrace.xz
Region of Interest Statistics

CPU 0 cumulative IPC: 1.816 instructions: 25000002 cycles: 13766372
CPU 0 Branch Prediction Accuracy: 96.52% MPKI: 9.703 Average ROB Occupancy at Mispredict: 53.32
Branch type MPKI
BRANCH_DIRECT_JUMP: 0
BRANCH_INDIRECT: 0
BRANCH_CONDITIONAL: 9.7
BRANCH_DIRECT_CALL: 0
BRANCH_INDIRECT_CALL: 0
BRANCH_RETURN: 0

LLC TOTAL        ACCESS:     516688 HIT:     418795 MISS:      97893
LLC LOAD         ACCESS:     233643 HIT:     228152 MISS:       5491
LLC RFO          ACCESS:         80 HIT:         55 MISS:         25
LLC PREFETCH     ACCESS:     282732 HIT:     190411 MISS:      92321
LLC WRITE        ACCESS:        201 HIT:        176 MISS:         25
LLC TRANSLATION  ACCESS:         32 HIT:          1 MISS:         31
LLC PREFETCH REQUESTED:          0 ISSUED:          0 USEFUL:          0 USELESS:          0
LLC AVERAGE MISS LATENCY: 167.1 cycles
cpu0_DTLB TOTAL        ACCESS:    6043172 HIT:    6010106 MISS:      33066
cpu0_DTLB LOAD         ACCESS:    6043172 HIT:    6010106 MISS:      33066
cpu0_DTLB RFO          ACCESS:          0 HIT:          0 MISS:          0
cpu0_DTLB PREFETCH     ACCESS:          0 HIT:          0 MISS:          0
cpu0_DTLB WRITE        ACCESS:          0 HIT:          0 MISS:          0
cpu0_DTLB TRANSLATION  ACCESS:          0 HIT:          0 MISS:          0
cpu0_DTLB PREFETCH REQUESTED:          0 ISSUED:          0 USEFUL:          0 USELESS:          0
cpu0_DTLB AVERAGE MISS LATENCY: 0.9959 cycles
cpu0_ITLB TOTAL        ACCESS:          0 HIT:          0 MISS:          0
cpu0_ITLB LOAD         ACCESS:          0 HIT:          0 MISS:          0
cpu0_ITLB RFO          ACCESS:          0 HIT:          0 MISS:          0
cpu0_ITLB PREFETCH     ACCESS:          0 HIT:          0 MISS:          0
cpu0_ITLB WRITE        ACCESS:          0 HIT:          0 MISS:          0
cpu0_ITLB TRANSLATION  ACCESS:          0 HIT:          0 MISS:          0
cpu0_ITLB PREFETCH REQUESTED:          0 ISSUED:          0 USEFUL:          0 USELESS:          0
cpu0_ITLB AVERAGE MISS LATENCY: -nan cycles
cpu0_L1D TOTAL        ACCESS:   12029397 HIT:    9496054 MISS:    2533343
cpu0_L1D LOAD         ACCESS:    6766646 HIT:    5230049 MISS:    1536597
cpu0_L1D RFO          ACCESS:          0 HIT:          0 MISS:          0
cpu0_L1D PREFETCH     ACCESS:    4934450 HIT:    3938225 MISS:     996225
cpu0_L1D WRITE        ACCESS:     328269 HIT:     327780 MISS:        489
cpu0_L1D TRANSLATION  ACCESS:         32 HIT:          0 MISS:         32
cpu0_L1D PREFETCH REQUESTED:    6766646 ISSUED:    4934449 USEFUL:      83246 USELESS:      40699
cpu0_L1D AVERAGE MISS LATENCY: 5.206 cycles
cpu0_L1I TOTAL        ACCESS:          0 HIT:          0 MISS:          0
cpu0_L1I LOAD         ACCESS:          0 HIT:          0 MISS:          0
cpu0_L1I RFO          ACCESS:          0 HIT:          0 MISS:          0
cpu0_L1I PREFETCH     ACCESS:          0 HIT:          0 MISS:          0
cpu0_L1I WRITE        ACCESS:          0 HIT:          0 MISS:          0
cpu0_L1I TRANSLATION  ACCESS:          0 HIT:          0 MISS:          0
cpu0_L1I PREFETCH REQUESTED:          0 ISSUED:          0 USEFUL:          0 USELESS:          0
cpu0_L1I AVERAGE MISS LATENCY: -nan cycles
cpu0_L2C TOTAL        ACCESS:     828172 HIT:     289696 MISS:     538476
cpu0_L2C LOAD         ACCESS:     392199 HIT:     154413 MISS:     237786
cpu0_L2C RFO          ACCESS:         94 HIT:         13 MISS:         81
cpu0_L2C PREFETCH     ACCESS:     435647 HIT:     135070 MISS:     300577
cpu0_L2C WRITE        ACCESS:        200 HIT:        200 MISS:          0
cpu0_L2C TRANSLATION  ACCESS:         32 HIT:          0 MISS:         32
cpu0_L2C PREFETCH REQUESTED:     311701 ISSUED:     311701 USEFUL:     217203 USELESS:       4831
cpu0_L2C AVERAGE MISS LATENCY: 48.4 cycles
cpu0_STLB TOTAL        ACCESS:       8784 HIT:       8752 MISS:         32
cpu0_STLB LOAD         ACCESS:       8784 HIT:       8752 MISS:         32
cpu0_STLB RFO          ACCESS:          0 HIT:          0 MISS:          0
cpu0_STLB PREFETCH     ACCESS:          0 HIT:          0 MISS:          0
cpu0_STLB WRITE        ACCESS:          0 HIT:          0 MISS:          0
cpu0_STLB TRANSLATION  ACCESS:          0 HIT:          0 MISS:          0
cpu0_STLB PREFETCH REQUESTED:          0 ISSUED:          0 USEFUL:          0 USELESS:          0
cpu0_STLB AVERAGE MISS LATENCY: 573 cycles

DRAM Statistics

Channel 0 RQ ROW_BUFFER_HIT:      87798
  ROW_BUFFER_MISS:      10070
 AVG DBUS CONGESTED CYCLE: 3.88
WQ ROW_BUFFER_HIT: Channel 0 
  ROW_BUFFER_MISS:         51
  FULL:         50
OPTgen accesses: 1974
OPTgen hits: 1862
OPTgen hit rate: 94.3263


