WARNING: physical memory size is smaller than virtual memory size.

*** ChampSim Multicore Out-of-Order Simulator ***
Warmup Instructions: 25000000
Simulation Instructions: 25000000
Number of CPUs: 1
Page size: 4096

Initialize Hawkeye state
Off-chip DRAM Size: 4 GiB Channels: 1 Width: 64-bit Data Race: 800 MT/s
Heartbeat CPU 0 instructions: 10000003 cycles: 2500088 heartbeat IPC: 4 cumulative IPC: 4 (Simulation time: 00 hr 00 min 31 sec)
Heartbeat CPU 0 instructions: 20000003 cycles: 5000088 heartbeat IPC: 4 cumulative IPC: 4 (Simulation time: 00 hr 01 min 06 sec)
Warmup finished CPU 0 instructions: 25000003 cycles: 6250089 cumulative IPC: 4 (Simulation time: 00 hr 01 min 25 sec)
Warmup complete CPU 0 instructions: 25000003 cycles: 6250089 cumulative IPC: 4 (Simulation time: 00 hr 01 min 25 sec)
Heartbeat CPU 0 instructions: 30000002 cycles: 10191876 heartbeat IPC: 1.926 cumulative IPC: 1.268 (Simulation time: 00 hr 01 min 59 sec)
Heartbeat CPU 0 instructions: 40000001 cycles: 18607206 heartbeat IPC: 1.188 cumulative IPC: 1.214 (Simulation time: 00 hr 03 min 11 sec)
Heartbeat CPU 0 instructions: 50000000 cycles: 27104390 heartbeat IPC: 1.177 cumulative IPC: 1.199 (Simulation time: 00 hr 04 min 24 sec)
Simulation finished CPU 0 instructions: 25000001 cycles: 20854303 cumulative IPC: 1.199 (Simulation time: 00 hr 04 min 24 sec)
Simulation complete CPU 0 instructions: 25000001 cycles: 20854303 cumulative IPC: 1.199 (Simulation time: 00 hr 04 min 24 sec)

ChampSim completed all CPUs

=== Simulation ===
CPU 0 runs ./traces/623.xalancbmk_s-202B.champsimtrace.xz
Region of Interest Statistics

CPU 0 cumulative IPC: 1.199 instructions: 25000001 cycles: 20854303
CPU 0 Branch Prediction Accuracy: 95.19% MPKI: 13.3 Average ROB Occupancy at Mispredict: 44.3
Branch type MPKI
BRANCH_DIRECT_JUMP: 0
BRANCH_INDIRECT: 0
BRANCH_CONDITIONAL: 13.3
BRANCH_DIRECT_CALL: 0
BRANCH_INDIRECT_CALL: 0
BRANCH_RETURN: 0

LLC TOTAL        ACCESS:     674084 HIT:     380901 MISS:     293183
LLC LOAD         ACCESS:      85935 HIT:      48885 MISS:      37050
LLC RFO          ACCESS:          0 HIT:          0 MISS:          0
LLC PREFETCH     ACCESS:     588119 HIT:     332016 MISS:     256103
LLC WRITE        ACCESS:          0 HIT:          0 MISS:          0
LLC TRANSLATION  ACCESS:         30 HIT:          0 MISS:         30
LLC PREFETCH REQUESTED:          0 ISSUED:          0 USEFUL:          0 USELESS:          0
LLC AVERAGE MISS LATENCY: 332.3 cycles
cpu0_DTLB TOTAL        ACCESS:    5681298 HIT:    5634587 MISS:      46711
cpu0_DTLB LOAD         ACCESS:    5681298 HIT:    5634587 MISS:      46711
cpu0_DTLB RFO          ACCESS:          0 HIT:          0 MISS:          0
cpu0_DTLB PREFETCH     ACCESS:          0 HIT:          0 MISS:          0
cpu0_DTLB WRITE        ACCESS:          0 HIT:          0 MISS:          0
cpu0_DTLB TRANSLATION  ACCESS:          0 HIT:          0 MISS:          0
cpu0_DTLB PREFETCH REQUESTED:          0 ISSUED:          0 USEFUL:          0 USELESS:          0
cpu0_DTLB AVERAGE MISS LATENCY: 0.9586 cycles
cpu0_ITLB TOTAL        ACCESS:          0 HIT:          0 MISS:          0
cpu0_ITLB LOAD         ACCESS:          0 HIT:          0 MISS:          0
cpu0_ITLB RFO          ACCESS:          0 HIT:          0 MISS:          0
cpu0_ITLB PREFETCH     ACCESS:          0 HIT:          0 MISS:          0
cpu0_ITLB WRITE        ACCESS:          0 HIT:          0 MISS:          0
cpu0_ITLB TRANSLATION  ACCESS:          0 HIT:          0 MISS:          0
cpu0_ITLB PREFETCH REQUESTED:          0 ISSUED:          0 USEFUL:          0 USELESS:          0
cpu0_ITLB AVERAGE MISS LATENCY: -nan cycles
cpu0_L1D TOTAL        ACCESS:   12115282 HIT:    9495773 MISS:    2619509
cpu0_L1D LOAD         ACCESS:    6743891 HIT:    5135402 MISS:    1608489
cpu0_L1D RFO          ACCESS:          0 HIT:          0 MISS:          0
cpu0_L1D PREFETCH     ACCESS:    4927657 HIT:    3916668 MISS:    1010989
cpu0_L1D WRITE        ACCESS:     443625 HIT:     443625 MISS:          0
cpu0_L1D TRANSLATION  ACCESS:        109 HIT:         78 MISS:         31
cpu0_L1D PREFETCH REQUESTED:    6744389 ISSUED:    4927654 USEFUL:     114288 USELESS:      51400
cpu0_L1D AVERAGE MISS LATENCY: 11.41 cycles
cpu0_L1I TOTAL        ACCESS:          0 HIT:          0 MISS:          0
cpu0_L1I LOAD         ACCESS:          0 HIT:          0 MISS:          0
cpu0_L1I RFO          ACCESS:          0 HIT:          0 MISS:          0
cpu0_L1I PREFETCH     ACCESS:          0 HIT:          0 MISS:          0
cpu0_L1I WRITE        ACCESS:          0 HIT:          0 MISS:          0
cpu0_L1I TRANSLATION  ACCESS:          0 HIT:          0 MISS:          0
cpu0_L1I PREFETCH REQUESTED:          0 ISSUED:          0 USEFUL:          0 USELESS:          0
cpu0_L1I AVERAGE MISS LATENCY: -nan cycles
cpu0_L2C TOTAL        ACCESS:    1620874 HIT:     745482 MISS:     875392
cpu0_L2C LOAD         ACCESS:     514100 HIT:     361657 MISS:     152443
cpu0_L2C RFO          ACCESS:          0 HIT:          0 MISS:          0
cpu0_L2C PREFETCH     ACCESS:    1106743 HIT:     383824 MISS:     722919
cpu0_L2C WRITE        ACCESS:          0 HIT:          0 MISS:          0
cpu0_L2C TRANSLATION  ACCESS:         31 HIT:          1 MISS:         30
cpu0_L2C PREFETCH REQUESTED:     940973 ISSUED:     940973 USEFUL:     469024 USELESS:       7956
cpu0_L2C AVERAGE MISS LATENCY: 107.2 cycles
cpu0_STLB TOTAL        ACCESS:      10922 HIT:      10813 MISS:        109
cpu0_STLB LOAD         ACCESS:      10922 HIT:      10813 MISS:        109
cpu0_STLB RFO          ACCESS:          0 HIT:          0 MISS:          0
cpu0_STLB PREFETCH     ACCESS:          0 HIT:          0 MISS:          0
cpu0_STLB WRITE        ACCESS:          0 HIT:          0 MISS:          0
cpu0_STLB TRANSLATION  ACCESS:          0 HIT:          0 MISS:          0
cpu0_STLB PREFETCH REQUESTED:          0 ISSUED:          0 USEFUL:          0 USELESS:          0
cpu0_STLB AVERAGE MISS LATENCY: 303.9 cycles

DRAM Statistics

Channel 0 RQ ROW_BUFFER_HIT:     277174
  ROW_BUFFER_MISS:      15384
 AVG DBUS CONGESTED CYCLE: 3.906
WQ ROW_BUFFER_HIT: Channel 0 
  ROW_BUFFER_MISS:          0
  FULL:          0
OPTgen accesses: 790
OPTgen hits: 747
OPTgen hit rate: 94.557


