WARNING: physical memory size is smaller than virtual memory size.

*** ChampSim Multicore Out-of-Order Simulator ***
Warmup Instructions: 25000000
Simulation Instructions: 25000000
Number of CPUs: 1
Page size: 4096

Initialize Hawkeye state
Off-chip DRAM Size: 4 GiB Channels: 1 Width: 64-bit Data Race: 800 MT/s
Heartbeat CPU 0 instructions: 10000001 cycles: 2504942 heartbeat IPC: 3.992 cumulative IPC: 3.992 (Simulation time: 00 hr 00 min 37 sec)
Heartbeat CPU 0 instructions: 20000001 cycles: 5005937 heartbeat IPC: 3.998 cumulative IPC: 3.995 (Simulation time: 00 hr 01 min 14 sec)
Warmup finished CPU 0 instructions: 25000002 cycles: 6257526 cumulative IPC: 3.995 (Simulation time: 00 hr 01 min 33 sec)
Warmup complete CPU 0 instructions: 25000002 cycles: 6257526 cumulative IPC: 3.995 (Simulation time: 00 hr 01 min 33 sec)
Heartbeat CPU 0 instructions: 30000000 cycles: 17922183 heartbeat IPC: 0.7742 cumulative IPC: 0.4286 (Simulation time: 00 hr 02 min 53 sec)
Heartbeat CPU 0 instructions: 40000003 cycles: 39243727 heartbeat IPC: 0.469 cumulative IPC: 0.4547 (Simulation time: 00 hr 05 min 17 sec)
Heartbeat CPU 0 instructions: 50000003 cycles: 61969821 heartbeat IPC: 0.44 cumulative IPC: 0.4487 (Simulation time: 00 hr 07 min 47 sec)
Simulation finished CPU 0 instructions: 25000001 cycles: 55712296 cumulative IPC: 0.4487 (Simulation time: 00 hr 07 min 47 sec)
Simulation complete CPU 0 instructions: 25000001 cycles: 55712296 cumulative IPC: 0.4487 (Simulation time: 00 hr 07 min 47 sec)

ChampSim completed all CPUs

=== Simulation ===
CPU 0 runs ./traces/623.xalancbmk_s-10B.champsimtrace.xz
Region of Interest Statistics

CPU 0 cumulative IPC: 0.4487 instructions: 25000001 cycles: 55712296
CPU 0 Branch Prediction Accuracy: 94.41% MPKI: 14.5 Average ROB Occupancy at Mispredict: 40.89
Branch type MPKI
BRANCH_DIRECT_JUMP: 0.0934
BRANCH_INDIRECT: 0.0223
BRANCH_CONDITIONAL: 13.9
BRANCH_DIRECT_CALL: 4e-05
BRANCH_INDIRECT_CALL: 0.127
BRANCH_RETURN: 0.402

LLC TOTAL        ACCESS:     963126 HIT:     274530 MISS:     688596
LLC LOAD         ACCESS:     632371 HIT:     235085 MISS:     397286
LLC RFO          ACCESS:       5994 HIT:       1493 MISS:       4501
LLC PREFETCH     ACCESS:     278857 HIT:      29405 MISS:     249452
LLC WRITE        ACCESS:      13159 HIT:       6204 MISS:       6955
LLC TRANSLATION  ACCESS:      32745 HIT:       2343 MISS:      30402
LLC PREFETCH REQUESTED:          0 ISSUED:          0 USEFUL:          0 USELESS:          0
LLC AVERAGE MISS LATENCY: 290.9 cycles
cpu0_DTLB TOTAL        ACCESS:    5872399 HIT:    5494043 MISS:     378356
cpu0_DTLB LOAD         ACCESS:    5872399 HIT:    5494043 MISS:     378356
cpu0_DTLB RFO          ACCESS:          0 HIT:          0 MISS:          0
cpu0_DTLB PREFETCH     ACCESS:          0 HIT:          0 MISS:          0
cpu0_DTLB WRITE        ACCESS:          0 HIT:          0 MISS:          0
cpu0_DTLB TRANSLATION  ACCESS:          0 HIT:          0 MISS:          0
cpu0_DTLB PREFETCH REQUESTED:          0 ISSUED:          0 USEFUL:          0 USELESS:          0
cpu0_DTLB AVERAGE MISS LATENCY: 31.33 cycles
cpu0_ITLB TOTAL        ACCESS:     344566 HIT:     303319 MISS:      41247
cpu0_ITLB LOAD         ACCESS:     344566 HIT:     303319 MISS:      41247
cpu0_ITLB RFO          ACCESS:          0 HIT:          0 MISS:          0
cpu0_ITLB PREFETCH     ACCESS:          0 HIT:          0 MISS:          0
cpu0_ITLB WRITE        ACCESS:          0 HIT:          0 MISS:          0
cpu0_ITLB TRANSLATION  ACCESS:          0 HIT:          0 MISS:          0
cpu0_ITLB PREFETCH REQUESTED:          0 ISSUED:          0 USEFUL:          0 USELESS:          0
cpu0_ITLB AVERAGE MISS LATENCY: 9.09 cycles
cpu0_L1D TOTAL        ACCESS:   12301091 HIT:    9964944 MISS:    2336147
cpu0_L1D LOAD         ACCESS:    6088639 HIT:    4858044 MISS:    1230595
cpu0_L1D RFO          ACCESS:          0 HIT:          0 MISS:          0
cpu0_L1D PREFETCH     ACCESS:    4853222 HIT:    3876752 MISS:     976470
cpu0_L1D WRITE        ACCESS:    1231702 HIT:    1155252 MISS:      76450
cpu0_L1D TRANSLATION  ACCESS:     127528 HIT:      74896 MISS:      52632
cpu0_L1D PREFETCH REQUESTED:    6093841 ISSUED:    4853221 USEFUL:      39471 USELESS:     275710
cpu0_L1D AVERAGE MISS LATENCY: 94.21 cycles
cpu0_L1I TOTAL        ACCESS:     383172 HIT:     245165 MISS:     138007
cpu0_L1I LOAD         ACCESS:     383172 HIT:     245165 MISS:     138007
cpu0_L1I RFO          ACCESS:          0 HIT:          0 MISS:          0
cpu0_L1I PREFETCH     ACCESS:          0 HIT:          0 MISS:          0
cpu0_L1I WRITE        ACCESS:          0 HIT:          0 MISS:          0
cpu0_L1I TRANSLATION  ACCESS:          0 HIT:          0 MISS:          0
cpu0_L1I PREFETCH REQUESTED:          0 ISSUED:          0 USEFUL:          0 USELESS:          0
cpu0_L1I AVERAGE MISS LATENCY: 46.5 cycles
cpu0_L2C TOTAL        ACCESS:    1230667 HIT:     277509 MISS:     953158
cpu0_L2C LOAD         ACCESS:     776266 HIT:     143059 MISS:     633207
cpu0_L2C RFO          ACCESS:      18707 HIT:      12711 MISS:       5996
cpu0_L2C PREFETCH     ACCESS:     336620 HIT:      55657 MISS:     280963
cpu0_L2C WRITE        ACCESS:      46830 HIT:      46583 MISS:        247
cpu0_L2C TRANSLATION  ACCESS:      52244 HIT:      19499 MISS:      32745
cpu0_L2C PREFETCH REQUESTED:      21386 ISSUED:      21386 USEFUL:       6334 USELESS:       6595
cpu0_L2C AVERAGE MISS LATENCY: 230.5 cycles
cpu0_STLB TOTAL        ACCESS:     186110 HIT:      59250 MISS:     126860
cpu0_STLB LOAD         ACCESS:     186110 HIT:      59250 MISS:     126860
cpu0_STLB RFO          ACCESS:          0 HIT:          0 MISS:          0
cpu0_STLB PREFETCH     ACCESS:          0 HIT:          0 MISS:          0
cpu0_STLB WRITE        ACCESS:          0 HIT:          0 MISS:          0
cpu0_STLB TRANSLATION  ACCESS:          0 HIT:          0 MISS:          0
cpu0_STLB PREFETCH REQUESTED:          0 ISSUED:          0 USEFUL:          0 USELESS:          0
cpu0_STLB AVERAGE MISS LATENCY: 89.7 cycles

DRAM Statistics

Channel 0 RQ ROW_BUFFER_HIT:     323635
  ROW_BUFFER_MISS:     357291
 AVG DBUS CONGESTED CYCLE: 3.843
WQ ROW_BUFFER_HIT: Channel 0 
  ROW_BUFFER_MISS:       2145
  FULL:       8726
OPTgen accesses: 5637
OPTgen hits: 3456
OPTgen hit rate: 61.3093


