WARNING: physical memory size is smaller than virtual memory size.

*** ChampSim Multicore Out-of-Order Simulator ***
Warmup Instructions: 25000000
Simulation Instructions: 25000000
Number of CPUs: 1
Page size: 4096

Initialize Hawkeye state
Off-chip DRAM Size: 4 GiB Channels: 1 Width: 64-bit Data Race: 800 MT/s
Heartbeat CPU 0 instructions: 10000002 cycles: 2500210 heartbeat IPC: 4 cumulative IPC: 4 (Simulation time: 00 hr 00 min 35 sec)
Heartbeat CPU 0 instructions: 20000003 cycles: 5006997 heartbeat IPC: 3.989 cumulative IPC: 3.994 (Simulation time: 00 hr 01 min 12 sec)
Warmup finished CPU 0 instructions: 25000003 cycles: 6257015 cumulative IPC: 3.996 (Simulation time: 00 hr 01 min 31 sec)
Warmup complete CPU 0 instructions: 25000003 cycles: 6257015 cumulative IPC: 3.996 (Simulation time: 00 hr 01 min 31 sec)
Heartbeat CPU 0 instructions: 30000002 cycles: 10142938 heartbeat IPC: 1.947 cumulative IPC: 1.287 (Simulation time: 00 hr 02 min 07 sec)
Heartbeat CPU 0 instructions: 40000003 cycles: 17887174 heartbeat IPC: 1.291 cumulative IPC: 1.29 (Simulation time: 00 hr 03 min 20 sec)
Heartbeat CPU 0 instructions: 50000003 cycles: 22871907 heartbeat IPC: 2.006 cumulative IPC: 1.505 (Simulation time: 00 hr 04 min 19 sec)
Simulation finished CPU 0 instructions: 25000000 cycles: 16614893 cumulative IPC: 1.505 (Simulation time: 00 hr 04 min 19 sec)
Simulation complete CPU 0 instructions: 25000000 cycles: 16614893 cumulative IPC: 1.505 (Simulation time: 00 hr 04 min 19 sec)

ChampSim completed all CPUs

=== Simulation ===
CPU 0 runs ./traces/623.xalancbmk_s-325B.champsimtrace.xz
Region of Interest Statistics

CPU 0 cumulative IPC: 1.505 instructions: 25000000 cycles: 16614893
CPU 0 Branch Prediction Accuracy: 95.9% MPKI: 12.3 Average ROB Occupancy at Mispredict: 22.72
Branch type MPKI
BRANCH_DIRECT_JUMP: 0.119
BRANCH_INDIRECT: 0.389
BRANCH_CONDITIONAL: 9.83
BRANCH_DIRECT_CALL: 0
BRANCH_INDIRECT_CALL: 0.401
BRANCH_RETURN: 1.57

LLC TOTAL        ACCESS:     260999 HIT:     196934 MISS:      64065
LLC LOAD         ACCESS:     126988 HIT:     111245 MISS:      15743
LLC RFO          ACCESS:      34020 HIT:       1001 MISS:      33019
LLC PREFETCH     ACCESS:      52934 HIT:      47470 MISS:       5464
LLC WRITE        ACCESS:      46514 HIT:      36885 MISS:       9629
LLC TRANSLATION  ACCESS:        543 HIT:        333 MISS:        210
LLC PREFETCH REQUESTED:          0 ISSUED:          0 USEFUL:          0 USELESS:          0
LLC AVERAGE MISS LATENCY: 341.9 cycles
cpu0_DTLB TOTAL        ACCESS:    7114243 HIT:    6538943 MISS:     575300
cpu0_DTLB LOAD         ACCESS:    7114243 HIT:    6538943 MISS:     575300
cpu0_DTLB RFO          ACCESS:          0 HIT:          0 MISS:          0
cpu0_DTLB PREFETCH     ACCESS:          0 HIT:          0 MISS:          0
cpu0_DTLB WRITE        ACCESS:          0 HIT:          0 MISS:          0
cpu0_DTLB TRANSLATION  ACCESS:          0 HIT:          0 MISS:          0
cpu0_DTLB PREFETCH REQUESTED:          0 ISSUED:          0 USEFUL:          0 USELESS:          0
cpu0_DTLB AVERAGE MISS LATENCY: 3.957 cycles
cpu0_ITLB TOTAL        ACCESS:     989333 HIT:     964077 MISS:      25256
cpu0_ITLB LOAD         ACCESS:     989333 HIT:     964077 MISS:      25256
cpu0_ITLB RFO          ACCESS:          0 HIT:          0 MISS:          0
cpu0_ITLB PREFETCH     ACCESS:          0 HIT:          0 MISS:          0
cpu0_ITLB WRITE        ACCESS:          0 HIT:          0 MISS:          0
cpu0_ITLB TRANSLATION  ACCESS:          0 HIT:          0 MISS:          0
cpu0_ITLB PREFETCH REQUESTED:          0 ISSUED:          0 USEFUL:          0 USELESS:          0
cpu0_ITLB AVERAGE MISS LATENCY: 2.189 cycles
cpu0_L1D TOTAL        ACCESS:   13601796 HIT:    8876127 MISS:    4725669
cpu0_L1D LOAD         ACCESS:    6192766 HIT:    3733916 MISS:    2458850
cpu0_L1D RFO          ACCESS:          0 HIT:          0 MISS:          0
cpu0_L1D PREFETCH     ACCESS:    5504479 HIT:    3423390 MISS:    2081089
cpu0_L1D WRITE        ACCESS:    1903943 HIT:    1718819 MISS:     185124
cpu0_L1D TRANSLATION  ACCESS:        608 HIT:          2 MISS:        606
cpu0_L1D PREFETCH REQUESTED:    6286809 ISSUED:    5504479 USEFUL:     156415 USELESS:     187371
cpu0_L1D AVERAGE MISS LATENCY: 7.337 cycles
cpu0_L1I TOTAL        ACCESS:    1079381 HIT:     983593 MISS:      95788
cpu0_L1I LOAD         ACCESS:    1079381 HIT:     983593 MISS:      95788
cpu0_L1I RFO          ACCESS:          0 HIT:          0 MISS:          0
cpu0_L1I PREFETCH     ACCESS:          0 HIT:          0 MISS:          0
cpu0_L1I WRITE        ACCESS:          0 HIT:          0 MISS:          0
cpu0_L1I TRANSLATION  ACCESS:          0 HIT:          0 MISS:          0
cpu0_L1I PREFETCH REQUESTED:          0 ISSUED:          0 USEFUL:          0 USELESS:          0
cpu0_L1I AVERAGE MISS LATENCY: 10.37 cycles
cpu0_L2C TOTAL        ACCESS:    1918024 HIT:    1672374 MISS:     245650
cpu0_L2C LOAD         ACCESS:     882728 HIT:     747080 MISS:     135648
cpu0_L2C RFO          ACCESS:      47708 HIT:      13654 MISS:      34054
cpu0_L2C PREFETCH     ACCESS:     893661 HIT:     818283 MISS:      75378
cpu0_L2C WRITE        ACCESS:      93321 HIT:      93294 MISS:         27
cpu0_L2C TRANSLATION  ACCESS:        606 HIT:         63 MISS:        543
cpu0_L2C PREFETCH REQUESTED:     549893 ISSUED:     549869 USEFUL:      11441 USELESS:       2085
cpu0_L2C AVERAGE MISS LATENCY: 106.2 cycles
cpu0_STLB TOTAL        ACCESS:     354901 HIT:     354293 MISS:        608
cpu0_STLB LOAD         ACCESS:     354901 HIT:     354293 MISS:        608
cpu0_STLB RFO          ACCESS:          0 HIT:          0 MISS:          0
cpu0_STLB PREFETCH     ACCESS:          0 HIT:          0 MISS:          0
cpu0_STLB WRITE        ACCESS:          0 HIT:          0 MISS:          0
cpu0_STLB TRANSLATION  ACCESS:          0 HIT:          0 MISS:          0
cpu0_STLB PREFETCH REQUESTED:          0 ISSUED:          0 USEFUL:          0 USELESS:          0
cpu0_STLB AVERAGE MISS LATENCY: 287.6 cycles

DRAM Statistics

Channel 0 RQ ROW_BUFFER_HIT:      21367
  ROW_BUFFER_MISS:      33038
 AVG DBUS CONGESTED CYCLE: 3.954
WQ ROW_BUFFER_HIT: Channel 0 
  ROW_BUFFER_MISS:       5422
  FULL:      34297
OPTgen accesses: 1447
OPTgen hits: 1219
OPTgen hit rate: 84.2433


