WARNING: physical memory size is smaller than virtual memory size.

*** ChampSim Multicore Out-of-Order Simulator ***
Warmup Instructions: 25000000
Simulation Instructions: 25000000
Number of CPUs: 1
Page size: 4096

Initialize Hawkeye state
Off-chip DRAM Size: 4 GiB Channels: 1 Width: 64-bit Data Race: 800 MT/s
Heartbeat CPU 0 instructions: 10000002 cycles: 2511678 heartbeat IPC: 3.981 cumulative IPC: 3.981 (Simulation time: 00 hr 00 min 29 sec)
Heartbeat CPU 0 instructions: 20000000 cycles: 5012361 heartbeat IPC: 3.999 cumulative IPC: 3.99 (Simulation time: 00 hr 01 min 05 sec)
Warmup finished CPU 0 instructions: 25000000 cycles: 6262701 cumulative IPC: 3.992 (Simulation time: 00 hr 01 min 24 sec)
Warmup complete CPU 0 instructions: 25000000 cycles: 6262701 cumulative IPC: 3.992 (Simulation time: 00 hr 01 min 24 sec)
Heartbeat CPU 0 instructions: 30000003 cycles: 8052736 heartbeat IPC: 3.289 cumulative IPC: 2.793 (Simulation time: 00 hr 01 min 48 sec)
Heartbeat CPU 0 instructions: 40000003 cycles: 11724625 heartbeat IPC: 2.723 cumulative IPC: 2.746 (Simulation time: 00 hr 02 min 36 sec)
Heartbeat CPU 0 instructions: 50000002 cycles: 15377339 heartbeat IPC: 2.738 cumulative IPC: 2.743 (Simulation time: 00 hr 03 min 23 sec)
Simulation finished CPU 0 instructions: 25000002 cycles: 9114639 cumulative IPC: 2.743 (Simulation time: 00 hr 03 min 23 sec)
Simulation complete CPU 0 instructions: 25000002 cycles: 9114639 cumulative IPC: 2.743 (Simulation time: 00 hr 03 min 23 sec)

ChampSim completed all CPUs

=== Simulation ===
CPU 0 runs ./traces/625.x264_s-20B.champsimtrace.xz
Region of Interest Statistics

CPU 0 cumulative IPC: 2.743 instructions: 25000002 cycles: 9114639
CPU 0 Branch Prediction Accuracy: 92.14% MPKI: 3.331 Average ROB Occupancy at Mispredict: 127.3
Branch type MPKI
BRANCH_DIRECT_JUMP: 0.0004
BRANCH_INDIRECT: 0.00028
BRANCH_CONDITIONAL: 3.22
BRANCH_DIRECT_CALL: 4e-05
BRANCH_INDIRECT_CALL: 0.00696
BRANCH_RETURN: 0.104

LLC TOTAL        ACCESS:      56384 HIT:       7874 MISS:      48510
LLC LOAD         ACCESS:      12558 HIT:       2571 MISS:       9987
LLC RFO          ACCESS:       9395 HIT:        334 MISS:       9061
LLC PREFETCH     ACCESS:      22604 HIT:       1020 MISS:      21584
LLC WRITE        ACCESS:      11206 HIT:       3927 MISS:       7279
LLC TRANSLATION  ACCESS:        621 HIT:         22 MISS:        599
LLC PREFETCH REQUESTED:          0 ISSUED:          0 USEFUL:          0 USELESS:          0
LLC AVERAGE MISS LATENCY: 357.3 cycles
cpu0_DTLB TOTAL        ACCESS:    4294913 HIT:    4126306 MISS:     168607
cpu0_DTLB LOAD         ACCESS:    4294913 HIT:    4126306 MISS:     168607
cpu0_DTLB RFO          ACCESS:          0 HIT:          0 MISS:          0
cpu0_DTLB PREFETCH     ACCESS:          0 HIT:          0 MISS:          0
cpu0_DTLB WRITE        ACCESS:          0 HIT:          0 MISS:          0
cpu0_DTLB TRANSLATION  ACCESS:          0 HIT:          0 MISS:          0
cpu0_DTLB PREFETCH REQUESTED:          0 ISSUED:          0 USEFUL:          0 USELESS:          0
cpu0_DTLB AVERAGE MISS LATENCY: 4.975 cycles
cpu0_ITLB TOTAL        ACCESS:     564975 HIT:     564975 MISS:          0
cpu0_ITLB LOAD         ACCESS:     564975 HIT:     564975 MISS:          0
cpu0_ITLB RFO          ACCESS:          0 HIT:          0 MISS:          0
cpu0_ITLB PREFETCH     ACCESS:          0 HIT:          0 MISS:          0
cpu0_ITLB WRITE        ACCESS:          0 HIT:          0 MISS:          0
cpu0_ITLB TRANSLATION  ACCESS:          0 HIT:          0 MISS:          0
cpu0_ITLB PREFETCH REQUESTED:          0 ISSUED:          0 USEFUL:          0 USELESS:          0
cpu0_ITLB AVERAGE MISS LATENCY: -nan cycles
cpu0_L1D TOTAL        ACCESS:    7828206 HIT:    7079582 MISS:     748624
cpu0_L1D LOAD         ACCESS:    3167003 HIT:    2797337 MISS:     369666
cpu0_L1D RFO          ACCESS:          0 HIT:          0 MISS:          0
cpu0_L1D PREFETCH     ACCESS:    2119333 HIT:    1859301 MISS:     260032
cpu0_L1D WRITE        ACCESS:    2541078 HIT:    2422909 MISS:     118169
cpu0_L1D TRANSLATION  ACCESS:        792 HIT:         35 MISS:        757
cpu0_L1D PREFETCH REQUESTED:    3220506 ISSUED:    2119342 USEFUL:      16731 USELESS:      75624
cpu0_L1D AVERAGE MISS LATENCY: 24.45 cycles
cpu0_L1I TOTAL        ACCESS:     681545 HIT:     599477 MISS:      82068
cpu0_L1I LOAD         ACCESS:     681545 HIT:     599477 MISS:      82068
cpu0_L1I RFO          ACCESS:          0 HIT:          0 MISS:          0
cpu0_L1I PREFETCH     ACCESS:          0 HIT:          0 MISS:          0
cpu0_L1I WRITE        ACCESS:          0 HIT:          0 MISS:          0
cpu0_L1I TRANSLATION  ACCESS:          0 HIT:          0 MISS:          0
cpu0_L1I PREFETCH REQUESTED:          0 ISSUED:          0 USEFUL:          0 USELESS:          0
cpu0_L1I AVERAGE MISS LATENCY: 15.17 cycles
cpu0_L2C TOTAL        ACCESS:     417010 HIT:     370220 MISS:      46790
cpu0_L2C LOAD         ACCESS:     186220 HIT:     173613 MISS:      12607
cpu0_L2C RFO          ACCESS:      58572 HIT:      49177 MISS:       9395
cpu0_L2C PREFETCH     ACCESS:     100801 HIT:      76783 MISS:      24018
cpu0_L2C WRITE        ACCESS:      70679 HIT:      70530 MISS:        149
cpu0_L2C TRANSLATION  ACCESS:        738 HIT:        117 MISS:        621
cpu0_L2C PREFETCH REQUESTED:       8455 ISSUED:       8455 USEFUL:       1618 USELESS:        427
cpu0_L2C AVERAGE MISS LATENCY: 387 cycles
cpu0_STLB TOTAL        ACCESS:      86074 HIT:      85282 MISS:        792
cpu0_STLB LOAD         ACCESS:      86074 HIT:      85282 MISS:        792
cpu0_STLB RFO          ACCESS:          0 HIT:          0 MISS:          0
cpu0_STLB PREFETCH     ACCESS:          0 HIT:          0 MISS:          0
cpu0_STLB WRITE        ACCESS:          0 HIT:          0 MISS:          0
cpu0_STLB TRANSLATION  ACCESS:          0 HIT:          0 MISS:          0
cpu0_STLB PREFETCH REQUESTED:          0 ISSUED:          0 USEFUL:          0 USELESS:          0
cpu0_STLB AVERAGE MISS LATENCY: 586.3 cycles

DRAM Statistics

Channel 0 RQ ROW_BUFFER_HIT:      15513
  ROW_BUFFER_MISS:      25036
 AVG DBUS CONGESTED CYCLE: 3.915
WQ ROW_BUFFER_HIT: Channel 0 
  ROW_BUFFER_MISS:       1525
  FULL:       8608
OPTgen accesses: 163
OPTgen hits: 27
OPTgen hit rate: 16.5645


