WARNING: physical memory size is smaller than virtual memory size.

*** ChampSim Multicore Out-of-Order Simulator ***
Warmup Instructions: 25000000
Simulation Instructions: 25000000
Number of CPUs: 1
Page size: 4096

Initialize Hawkeye state
Off-chip DRAM Size: 4 GiB Channels: 1 Width: 64-bit Data Race: 800 MT/s
Heartbeat CPU 0 instructions: 10000002 cycles: 2558171 heartbeat IPC: 3.909 cumulative IPC: 3.909 (Simulation time: 00 hr 00 min 28 sec)
Heartbeat CPU 0 instructions: 20000003 cycles: 5121617 heartbeat IPC: 3.901 cumulative IPC: 3.905 (Simulation time: 00 hr 01 min 00 sec)
Warmup finished CPU 0 instructions: 25000001 cycles: 6398084 cumulative IPC: 3.907 (Simulation time: 00 hr 01 min 17 sec)
Warmup complete CPU 0 instructions: 25000001 cycles: 6398084 cumulative IPC: 3.907 (Simulation time: 00 hr 01 min 17 sec)
Heartbeat CPU 0 instructions: 30000001 cycles: 10303484 heartbeat IPC: 1.93 cumulative IPC: 1.28 (Simulation time: 00 hr 01 min 54 sec)
Heartbeat CPU 0 instructions: 40000000 cycles: 17331042 heartbeat IPC: 1.423 cumulative IPC: 1.372 (Simulation time: 00 hr 03 min 03 sec)
Heartbeat CPU 0 instructions: 50000003 cycles: 24873403 heartbeat IPC: 1.326 cumulative IPC: 1.353 (Simulation time: 00 hr 04 min 18 sec)
Simulation finished CPU 0 instructions: 25000002 cycles: 18475320 cumulative IPC: 1.353 (Simulation time: 00 hr 04 min 18 sec)
Simulation complete CPU 0 instructions: 25000002 cycles: 18475320 cumulative IPC: 1.353 (Simulation time: 00 hr 04 min 18 sec)

ChampSim completed all CPUs

=== Simulation ===
CPU 0 runs ./traces/627.cam4_s-490B.champsimtrace.xz
Region of Interest Statistics

CPU 0 cumulative IPC: 1.353 instructions: 25000002 cycles: 18475320
CPU 0 Branch Prediction Accuracy: 90.28% MPKI: 9.288 Average ROB Occupancy at Mispredict: 32.88
Branch type MPKI
BRANCH_DIRECT_JUMP: 0.00504
BRANCH_INDIRECT: 0
BRANCH_CONDITIONAL: 9.28
BRANCH_DIRECT_CALL: 0
BRANCH_INDIRECT_CALL: 0
BRANCH_RETURN: 0

LLC TOTAL        ACCESS:     613904 HIT:     487695 MISS:     126209
LLC LOAD         ACCESS:      75594 HIT:      61538 MISS:      14056
LLC RFO          ACCESS:     128229 HIT:      71215 MISS:      57014
LLC PREFETCH     ACCESS:     233428 HIT:     184847 MISS:      48581
LLC WRITE        ACCESS:     176622 HIT:     170092 MISS:       6530
LLC TRANSLATION  ACCESS:         31 HIT:          3 MISS:         28
LLC PREFETCH REQUESTED:          0 ISSUED:          0 USEFUL:          0 USELESS:          0
LLC AVERAGE MISS LATENCY: 943.2 cycles
cpu0_DTLB TOTAL        ACCESS:    4042890 HIT:    4020254 MISS:      22636
cpu0_DTLB LOAD         ACCESS:    4042890 HIT:    4020254 MISS:      22636
cpu0_DTLB RFO          ACCESS:          0 HIT:          0 MISS:          0
cpu0_DTLB PREFETCH     ACCESS:          0 HIT:          0 MISS:          0
cpu0_DTLB WRITE        ACCESS:          0 HIT:          0 MISS:          0
cpu0_DTLB TRANSLATION  ACCESS:          0 HIT:          0 MISS:          0
cpu0_DTLB PREFETCH REQUESTED:          0 ISSUED:          0 USEFUL:          0 USELESS:          0
cpu0_DTLB AVERAGE MISS LATENCY: 4.5 cycles
cpu0_ITLB TOTAL        ACCESS:       4629 HIT:       4629 MISS:          0
cpu0_ITLB LOAD         ACCESS:       4629 HIT:       4629 MISS:          0
cpu0_ITLB RFO          ACCESS:          0 HIT:          0 MISS:          0
cpu0_ITLB PREFETCH     ACCESS:          0 HIT:          0 MISS:          0
cpu0_ITLB WRITE        ACCESS:          0 HIT:          0 MISS:          0
cpu0_ITLB TRANSLATION  ACCESS:          0 HIT:          0 MISS:          0
cpu0_ITLB PREFETCH REQUESTED:          0 ISSUED:          0 USEFUL:          0 USELESS:          0
cpu0_ITLB AVERAGE MISS LATENCY: -nan cycles
cpu0_L1D TOTAL        ACCESS:    7007329 HIT:    5018646 MISS:    1988683
cpu0_L1D LOAD         ACCESS:    3162400 HIT:    2482182 MISS:     680218
cpu0_L1D RFO          ACCESS:          0 HIT:          0 MISS:          0
cpu0_L1D PREFETCH     ACCESS:    2207776 HIT:    1660282 MISS:     547494
cpu0_L1D WRITE        ACCESS:    1636689 HIT:     875786 MISS:     760903
cpu0_L1D TRANSLATION  ACCESS:        464 HIT:        396 MISS:         68
cpu0_L1D PREFETCH REQUESTED:    4621508 ISSUED:    2207773 USEFUL:     149652 USELESS:       3155
cpu0_L1D AVERAGE MISS LATENCY: 54.33 cycles
cpu0_L1I TOTAL        ACCESS:       5718 HIT:       4551 MISS:       1167
cpu0_L1I LOAD         ACCESS:       5718 HIT:       4551 MISS:       1167
cpu0_L1I RFO          ACCESS:          0 HIT:          0 MISS:          0
cpu0_L1I PREFETCH     ACCESS:          0 HIT:          0 MISS:          0
cpu0_L1I WRITE        ACCESS:          0 HIT:          0 MISS:          0
cpu0_L1I TRANSLATION  ACCESS:          0 HIT:          0 MISS:          0
cpu0_L1I PREFETCH REQUESTED:          0 ISSUED:          0 USEFUL:          0 USELESS:          0
cpu0_L1I AVERAGE MISS LATENCY: 275.8 cycles
cpu0_L2C TOTAL        ACCESS:     961190 HIT:     406479 MISS:     554711
cpu0_L2C LOAD         ACCESS:     164800 HIT:      64691 MISS:     100109
cpu0_L2C RFO          ACCESS:     130209 HIT:       1980 MISS:     128229
cpu0_L2C PREFETCH     ACCESS:     478135 HIT:     152357 MISS:     325778
cpu0_L2C WRITE        ACCESS:     187978 HIT:     187414 MISS:        564
cpu0_L2C TRANSLATION  ACCESS:         68 HIT:         37 MISS:         31
cpu0_L2C PREFETCH REQUESTED:     335559 ISSUED:     325314 USEFUL:      86854 USELESS:      10412
cpu0_L2C AVERAGE MISS LATENCY: 224.3 cycles
cpu0_STLB TOTAL        ACCESS:       7772 HIT:       7308 MISS:        464
cpu0_STLB LOAD         ACCESS:       7772 HIT:       7308 MISS:        464
cpu0_STLB RFO          ACCESS:          0 HIT:          0 MISS:          0
cpu0_STLB PREFETCH     ACCESS:          0 HIT:          0 MISS:          0
cpu0_STLB WRITE        ACCESS:          0 HIT:          0 MISS:          0
cpu0_STLB TRANSLATION  ACCESS:          0 HIT:          0 MISS:          0
cpu0_STLB PREFETCH REQUESTED:          0 ISSUED:          0 USEFUL:          0 USELESS:          0
cpu0_STLB AVERAGE MISS LATENCY: 299.7 cycles

DRAM Statistics

Channel 0 RQ ROW_BUFFER_HIT:      39092
  ROW_BUFFER_MISS:      73813
 AVG DBUS CONGESTED CYCLE: 3.944
WQ ROW_BUFFER_HIT: Channel 0 
  ROW_BUFFER_MISS:       7664
  FULL:      77334
OPTgen accesses: 1639
OPTgen hits: 2060
OPTgen hit rate: 125.687


