WARNING: physical memory size is smaller than virtual memory size.

*** ChampSim Multicore Out-of-Order Simulator ***
Warmup Instructions: 25000000
Simulation Instructions: 25000000
Number of CPUs: 1
Page size: 4096

Initialize Hawkeye state
Off-chip DRAM Size: 4 GiB Channels: 1 Width: 64-bit Data Race: 800 MT/s
Heartbeat CPU 0 instructions: 10000002 cycles: 2568794 heartbeat IPC: 3.893 cumulative IPC: 3.893 (Simulation time: 00 hr 00 min 38 sec)
Heartbeat CPU 0 instructions: 20000003 cycles: 5137457 heartbeat IPC: 3.893 cumulative IPC: 3.893 (Simulation time: 00 hr 01 min 15 sec)
Warmup finished CPU 0 instructions: 25000002 cycles: 6421727 cumulative IPC: 3.893 (Simulation time: 00 hr 01 min 33 sec)
Warmup complete CPU 0 instructions: 25000002 cycles: 6421727 cumulative IPC: 3.893 (Simulation time: 00 hr 01 min 33 sec)
Heartbeat CPU 0 instructions: 30000000 cycles: 8699335 heartbeat IPC: 2.808 cumulative IPC: 2.195 (Simulation time: 00 hr 02 min 01 sec)
Heartbeat CPU 0 instructions: 40000002 cycles: 13296514 heartbeat IPC: 2.175 cumulative IPC: 2.182 (Simulation time: 00 hr 02 min 57 sec)
Heartbeat CPU 0 instructions: 50000001 cycles: 17794908 heartbeat IPC: 2.223 cumulative IPC: 2.198 (Simulation time: 00 hr 03 min 58 sec)
Simulation finished CPU 0 instructions: 25000003 cycles: 11373183 cumulative IPC: 2.198 (Simulation time: 00 hr 03 min 58 sec)
Simulation complete CPU 0 instructions: 25000003 cycles: 11373183 cumulative IPC: 2.198 (Simulation time: 00 hr 03 min 58 sec)

ChampSim completed all CPUs

=== Simulation ===
CPU 0 runs ./traces/628.pop2_s-17B.champsimtrace.xz
Region of Interest Statistics

CPU 0 cumulative IPC: 2.198 instructions: 25000003 cycles: 11373183
CPU 0 Branch Prediction Accuracy: 96.47% MPKI: 4.044 Average ROB Occupancy at Mispredict: 109.4
Branch type MPKI
BRANCH_DIRECT_JUMP: 0.0513
BRANCH_INDIRECT: 0.00164
BRANCH_CONDITIONAL: 3.99
BRANCH_DIRECT_CALL: 0
BRANCH_INDIRECT_CALL: 0
BRANCH_RETURN: 0

LLC TOTAL        ACCESS:     465031 HIT:     387949 MISS:      77082
LLC LOAD         ACCESS:      90006 HIT:      78772 MISS:      11234
LLC RFO          ACCESS:      85480 HIT:      80155 MISS:       5325
LLC PREFETCH     ACCESS:     158680 HIT:      99086 MISS:      59594
LLC WRITE        ACCESS:     129409 HIT:     129403 MISS:          6
LLC TRANSLATION  ACCESS:       1456 HIT:        533 MISS:        923
LLC PREFETCH REQUESTED:          0 ISSUED:          0 USEFUL:          0 USELESS:          0
LLC AVERAGE MISS LATENCY: 425.6 cycles
cpu0_DTLB TOTAL        ACCESS:    5451214 HIT:    5400626 MISS:      50588
cpu0_DTLB LOAD         ACCESS:    5451214 HIT:    5400626 MISS:      50588
cpu0_DTLB RFO          ACCESS:          0 HIT:          0 MISS:          0
cpu0_DTLB PREFETCH     ACCESS:          0 HIT:          0 MISS:          0
cpu0_DTLB WRITE        ACCESS:          0 HIT:          0 MISS:          0
cpu0_DTLB TRANSLATION  ACCESS:          0 HIT:          0 MISS:          0
cpu0_DTLB PREFETCH REQUESTED:          0 ISSUED:          0 USEFUL:          0 USELESS:          0
cpu0_DTLB AVERAGE MISS LATENCY: 13.19 cycles
cpu0_ITLB TOTAL        ACCESS:      92863 HIT:      89047 MISS:       3816
cpu0_ITLB LOAD         ACCESS:      92863 HIT:      89047 MISS:       3816
cpu0_ITLB RFO          ACCESS:          0 HIT:          0 MISS:          0
cpu0_ITLB PREFETCH     ACCESS:          0 HIT:          0 MISS:          0
cpu0_ITLB WRITE        ACCESS:          0 HIT:          0 MISS:          0
cpu0_ITLB TRANSLATION  ACCESS:          0 HIT:          0 MISS:          0
cpu0_ITLB PREFETCH REQUESTED:          0 ISSUED:          0 USEFUL:          0 USELESS:          0
cpu0_ITLB AVERAGE MISS LATENCY: 1.381 cycles
cpu0_L1D TOTAL        ACCESS:    8783994 HIT:    6576760 MISS:    2207234
cpu0_L1D LOAD         ACCESS:    4554615 HIT:    3620439 MISS:     934176
cpu0_L1D RFO          ACCESS:          0 HIT:          0 MISS:          0
cpu0_L1D PREFETCH     ACCESS:    2337325 HIT:    1688254 MISS:     649071
cpu0_L1D WRITE        ACCESS:    1890366 HIT:    1268008 MISS:     622358
cpu0_L1D TRANSLATION  ACCESS:       1688 HIT:         59 MISS:       1629
cpu0_L1D PREFETCH REQUESTED:    4617218 ISSUED:    2337325 USEFUL:     195673 USELESS:      34987
cpu0_L1D AVERAGE MISS LATENCY: 12.45 cycles
cpu0_L1I TOTAL        ACCESS:     115375 HIT:      58041 MISS:      57334
cpu0_L1I LOAD         ACCESS:     115375 HIT:      58041 MISS:      57334
cpu0_L1I RFO          ACCESS:          0 HIT:          0 MISS:          0
cpu0_L1I PREFETCH     ACCESS:          0 HIT:          0 MISS:          0
cpu0_L1I WRITE        ACCESS:          0 HIT:          0 MISS:          0
cpu0_L1I TRANSLATION  ACCESS:          0 HIT:          0 MISS:          0
cpu0_L1I PREFETCH REQUESTED:          0 ISSUED:          0 USEFUL:          0 USELESS:          0
cpu0_L1I AVERAGE MISS LATENCY: 14.27 cycles
cpu0_L2C TOTAL        ACCESS:    1325350 HIT:     915464 MISS:     409886
cpu0_L2C LOAD         ACCESS:     299249 HIT:     198741 MISS:     100508
cpu0_L2C RFO          ACCESS:     162598 HIT:      77118 MISS:      85480
cpu0_L2C PREFETCH     ACCESS:     625487 HIT:     403121 MISS:     222366
cpu0_L2C WRITE        ACCESS:     236436 HIT:     236360 MISS:         76
cpu0_L2C TRANSLATION  ACCESS:       1580 HIT:        124 MISS:       1456
cpu0_L2C PREFETCH REQUESTED:     394835 ISSUED:     394832 USEFUL:      54700 USELESS:      12842
cpu0_L2C AVERAGE MISS LATENCY: 95.61 cycles
cpu0_STLB TOTAL        ACCESS:      21956 HIT:      20733 MISS:       1223
cpu0_STLB LOAD         ACCESS:      21956 HIT:      20733 MISS:       1223
cpu0_STLB RFO          ACCESS:          0 HIT:          0 MISS:          0
cpu0_STLB PREFETCH     ACCESS:          0 HIT:          0 MISS:          0
cpu0_STLB WRITE        ACCESS:          0 HIT:          0 MISS:          0
cpu0_STLB TRANSLATION  ACCESS:          0 HIT:          0 MISS:          0
cpu0_STLB PREFETCH REQUESTED:          0 ISSUED:          0 USEFUL:          0 USELESS:          0
cpu0_STLB AVERAGE MISS LATENCY: 605.3 cycles

DRAM Statistics

Channel 0 RQ ROW_BUFFER_HIT:      42953
  ROW_BUFFER_MISS:      33620
 AVG DBUS CONGESTED CYCLE: 3.918
WQ ROW_BUFFER_HIT: Channel 0 
  ROW_BUFFER_MISS:       2315
  FULL:      19486
OPTgen accesses: 1426
OPTgen hits: 1503
OPTgen hit rate: 105.4


