WARNING: physical memory size is smaller than virtual memory size.

*** ChampSim Multicore Out-of-Order Simulator ***
Warmup Instructions: 25000000
Simulation Instructions: 25000000
Number of CPUs: 1
Page size: 4096

Initialize Hawkeye state
Off-chip DRAM Size: 4 GiB Channels: 1 Width: 64-bit Data Race: 800 MT/s
Heartbeat CPU 0 instructions: 10000003 cycles: 3155541 heartbeat IPC: 3.169 cumulative IPC: 3.169 (Simulation time: 00 hr 00 min 53 sec)
Heartbeat CPU 0 instructions: 20000003 cycles: 6311121 heartbeat IPC: 3.169 cumulative IPC: 3.169 (Simulation time: 00 hr 01 min 50 sec)
Warmup finished CPU 0 instructions: 25000003 cycles: 7888553 cumulative IPC: 3.169 (Simulation time: 00 hr 02 min 18 sec)
Warmup complete CPU 0 instructions: 25000003 cycles: 7888553 cumulative IPC: 3.169 (Simulation time: 00 hr 02 min 18 sec)
Heartbeat CPU 0 instructions: 30000002 cycles: 18577662 heartbeat IPC: 0.8152 cumulative IPC: 0.4678 (Simulation time: 00 hr 04 min 06 sec)
Heartbeat CPU 0 instructions: 40000002 cycles: 42078161 heartbeat IPC: 0.4255 cumulative IPC: 0.4387 (Simulation time: 00 hr 07 min 50 sec)
Heartbeat CPU 0 instructions: 50000000 cycles: 67057911 heartbeat IPC: 0.4003 cumulative IPC: 0.4225 (Simulation time: 00 hr 10 min 58 sec)
Simulation finished CPU 0 instructions: 25000001 cycles: 59169360 cumulative IPC: 0.4225 (Simulation time: 00 hr 10 min 58 sec)
Simulation complete CPU 0 instructions: 25000001 cycles: 59169360 cumulative IPC: 0.4225 (Simulation time: 00 hr 10 min 58 sec)

ChampSim completed all CPUs

=== Simulation ===
CPU 0 runs ./traces/649.fotonik3d_s-10881B.champsimtrace.xz
Region of Interest Statistics

CPU 0 cumulative IPC: 0.4225 instructions: 25000001 cycles: 59169360
CPU 0 Branch Prediction Accuracy: 93.33% MPKI: 0.8021 Average ROB Occupancy at Mispredict: 352
Branch type MPKI
BRANCH_DIRECT_JUMP: 0
BRANCH_INDIRECT: 0
BRANCH_CONDITIONAL: 0.802
BRANCH_DIRECT_CALL: 0
BRANCH_INDIRECT_CALL: 0
BRANCH_RETURN: 0

LLC TOTAL        ACCESS:     834099 HIT:     110417 MISS:     723682
LLC LOAD         ACCESS:     278573 HIT:      35822 MISS:     242751
LLC RFO          ACCESS:          0 HIT:          0 MISS:          0
LLC PREFETCH     ACCESS:     300405 HIT:       6932 MISS:     293473
LLC WRITE        ACCESS:     242782 HIT:      64566 MISS:     178216
LLC TRANSLATION  ACCESS:      12339 HIT:       3097 MISS:       9242
LLC PREFETCH REQUESTED:          0 ISSUED:          0 USEFUL:          0 USELESS:          0
LLC AVERAGE MISS LATENCY: 727.4 cycles
cpu0_DTLB TOTAL        ACCESS:    9234224 HIT:    8969248 MISS:     264976
cpu0_DTLB LOAD         ACCESS:    9234224 HIT:    8969248 MISS:     264976
cpu0_DTLB RFO          ACCESS:          0 HIT:          0 MISS:          0
cpu0_DTLB PREFETCH     ACCESS:          0 HIT:          0 MISS:          0
cpu0_DTLB WRITE        ACCESS:          0 HIT:          0 MISS:          0
cpu0_DTLB TRANSLATION  ACCESS:          0 HIT:          0 MISS:          0
cpu0_DTLB PREFETCH REQUESTED:          0 ISSUED:          0 USEFUL:          0 USELESS:          0
cpu0_DTLB AVERAGE MISS LATENCY: 66.78 cycles
cpu0_ITLB TOTAL        ACCESS:          0 HIT:          0 MISS:          0
cpu0_ITLB LOAD         ACCESS:          0 HIT:          0 MISS:          0
cpu0_ITLB RFO          ACCESS:          0 HIT:          0 MISS:          0
cpu0_ITLB PREFETCH     ACCESS:          0 HIT:          0 MISS:          0
cpu0_ITLB WRITE        ACCESS:          0 HIT:          0 MISS:          0
cpu0_ITLB TRANSLATION  ACCESS:          0 HIT:          0 MISS:          0
cpu0_ITLB PREFETCH REQUESTED:          0 ISSUED:          0 USEFUL:          0 USELESS:          0
cpu0_ITLB AVERAGE MISS LATENCY: -nan cycles
cpu0_L1D TOTAL        ACCESS:   12281534 HIT:   10817665 MISS:    1463869
cpu0_L1D LOAD         ACCESS:    8974466 HIT:    8111811 MISS:     862655
cpu0_L1D RFO          ACCESS:          0 HIT:          0 MISS:          0
cpu0_L1D PREFETCH     ACCESS:    1619213 HIT:    1102126 MISS:     517087
cpu0_L1D WRITE        ACCESS:    1602830 HIT:    1602824 MISS:          6
cpu0_L1D TRANSLATION  ACCESS:      85025 HIT:        904 MISS:      84121
cpu0_L1D PREFETCH REQUESTED:   10169164 ISSUED:    1619209 USEFUL:     181286 USELESS:      82597
cpu0_L1D AVERAGE MISS LATENCY: 281.4 cycles
cpu0_L1I TOTAL        ACCESS:          0 HIT:          0 MISS:          0
cpu0_L1I LOAD         ACCESS:          0 HIT:          0 MISS:          0
cpu0_L1I RFO          ACCESS:          0 HIT:          0 MISS:          0
cpu0_L1I PREFETCH     ACCESS:          0 HIT:          0 MISS:          0
cpu0_L1I WRITE        ACCESS:          0 HIT:          0 MISS:          0
cpu0_L1I TRANSLATION  ACCESS:          0 HIT:          0 MISS:          0
cpu0_L1I PREFETCH REQUESTED:          0 ISSUED:          0 USEFUL:          0 USELESS:          0
cpu0_L1I AVERAGE MISS LATENCY: -nan cycles
cpu0_L2C TOTAL        ACCESS:     966039 HIT:     370952 MISS:     595087
cpu0_L2C LOAD         ACCESS:     299747 HIT:      21077 MISS:     278670
cpu0_L2C RFO          ACCESS:          6 HIT:          6 MISS:          0
cpu0_L2C PREFETCH     ACCESS:     339274 HIT:      35196 MISS:     304078
cpu0_L2C WRITE        ACCESS:     242891 HIT:     242891 MISS:          0
cpu0_L2C TRANSLATION  ACCESS:      84121 HIT:      71782 MISS:      12339
cpu0_L2C PREFETCH REQUESTED:      75357 ISSUED:      75357 USEFUL:      36498 USELESS:      16747
cpu0_L2C AVERAGE MISS LATENCY: 902.9 cycles
cpu0_STLB TOTAL        ACCESS:     114705 HIT:      29812 MISS:      84893
cpu0_STLB LOAD         ACCESS:     114705 HIT:      29812 MISS:      84893
cpu0_STLB RFO          ACCESS:          0 HIT:          0 MISS:          0
cpu0_STLB PREFETCH     ACCESS:          0 HIT:          0 MISS:          0
cpu0_STLB WRITE        ACCESS:          0 HIT:          0 MISS:          0
cpu0_STLB TRANSLATION  ACCESS:          0 HIT:          0 MISS:          0
cpu0_STLB PREFETCH REQUESTED:          0 ISSUED:          0 USEFUL:          0 USELESS:          0
cpu0_STLB AVERAGE MISS LATENCY: 305.6 cycles

DRAM Statistics

Channel 0 RQ ROW_BUFFER_HIT:     177469
  ROW_BUFFER_MISS:     367941
 AVG DBUS CONGESTED CYCLE: 3.912
WQ ROW_BUFFER_HIT: Channel 0 
  ROW_BUFFER_MISS:       3793
  FULL:     231302
OPTgen accesses: 2832
OPTgen hits: 673
OPTgen hit rate: 23.7642


