WARNING: physical memory size is smaller than virtual memory size.

*** ChampSim Multicore Out-of-Order Simulator ***
Warmup Instructions: 25000000
Simulation Instructions: 25000000
Number of CPUs: 1
Page size: 4096

Initialize Hawkeye state
Off-chip DRAM Size: 4 GiB Channels: 1 Width: 64-bit Data Race: 800 MT/s
Heartbeat CPU 0 instructions: 10000000 cycles: 2500125 heartbeat IPC: 4 cumulative IPC: 4 (Simulation time: 00 hr 00 min 31 sec)
Heartbeat CPU 0 instructions: 20000002 cycles: 5000146 heartbeat IPC: 4 cumulative IPC: 4 (Simulation time: 00 hr 01 min 08 sec)
Warmup finished CPU 0 instructions: 25000002 cycles: 6250147 cumulative IPC: 4 (Simulation time: 00 hr 01 min 27 sec)
Warmup complete CPU 0 instructions: 25000002 cycles: 6250147 cumulative IPC: 4 (Simulation time: 00 hr 01 min 27 sec)
Heartbeat CPU 0 instructions: 30000000 cycles: 13772370 heartbeat IPC: 1.14 cumulative IPC: 0.6647 (Simulation time: 00 hr 02 min 41 sec)
Heartbeat CPU 0 instructions: 40000002 cycles: 28981749 heartbeat IPC: 0.6575 cumulative IPC: 0.6599 (Simulation time: 00 hr 05 min 19 sec)
Heartbeat CPU 0 instructions: 50000000 cycles: 44104957 heartbeat IPC: 0.6612 cumulative IPC: 0.6604 (Simulation time: 00 hr 07 min 59 sec)
Simulation finished CPU 0 instructions: 25000002 cycles: 37854812 cumulative IPC: 0.6604 (Simulation time: 00 hr 07 min 59 sec)
Simulation complete CPU 0 instructions: 25000002 cycles: 37854812 cumulative IPC: 0.6604 (Simulation time: 00 hr 07 min 59 sec)

ChampSim completed all CPUs

=== Simulation ===
CPU 0 runs ./traces/649.fotonik3d_s-7084B.champsimtrace.xz
Region of Interest Statistics

CPU 0 cumulative IPC: 0.6604 instructions: 25000002 cycles: 37854812
CPU 0 Branch Prediction Accuracy: 99.19% MPKI: 0.05616 Average ROB Occupancy at Mispredict: 352
Branch type MPKI
BRANCH_DIRECT_JUMP: 0
BRANCH_INDIRECT: 0
BRANCH_CONDITIONAL: 0.0562
BRANCH_DIRECT_CALL: 0
BRANCH_INDIRECT_CALL: 0
BRANCH_RETURN: 0

LLC TOTAL        ACCESS:     551496 HIT:       1925 MISS:     549571
LLC LOAD         ACCESS:      46476 HIT:         75 MISS:      46401
LLC RFO          ACCESS:          0 HIT:          0 MISS:          0
LLC PREFETCH     ACCESS:     374630 HIT:        280 MISS:     374350
LLC WRITE        ACCESS:     129832 HIT:       1431 MISS:     128401
LLC TRANSLATION  ACCESS:        558 HIT:        139 MISS:        419
LLC PREFETCH REQUESTED:          0 ISSUED:          0 USEFUL:          0 USELESS:          0
LLC AVERAGE MISS LATENCY: 683.5 cycles
cpu0_DTLB TOTAL        ACCESS:    6189298 HIT:    6164127 MISS:      25171
cpu0_DTLB LOAD         ACCESS:    6189298 HIT:    6164127 MISS:      25171
cpu0_DTLB RFO          ACCESS:          0 HIT:          0 MISS:          0
cpu0_DTLB PREFETCH     ACCESS:          0 HIT:          0 MISS:          0
cpu0_DTLB WRITE        ACCESS:          0 HIT:          0 MISS:          0
cpu0_DTLB TRANSLATION  ACCESS:          0 HIT:          0 MISS:          0
cpu0_DTLB PREFETCH REQUESTED:          0 ISSUED:          0 USEFUL:          0 USELESS:          0
cpu0_DTLB AVERAGE MISS LATENCY: 51.58 cycles
cpu0_ITLB TOTAL        ACCESS:          0 HIT:          0 MISS:          0
cpu0_ITLB LOAD         ACCESS:          0 HIT:          0 MISS:          0
cpu0_ITLB RFO          ACCESS:          0 HIT:          0 MISS:          0
cpu0_ITLB PREFETCH     ACCESS:          0 HIT:          0 MISS:          0
cpu0_ITLB WRITE        ACCESS:          0 HIT:          0 MISS:          0
cpu0_ITLB TRANSLATION  ACCESS:          0 HIT:          0 MISS:          0
cpu0_ITLB PREFETCH REQUESTED:          0 ISSUED:          0 USEFUL:          0 USELESS:          0
cpu0_ITLB AVERAGE MISS LATENCY: -nan cycles
cpu0_L1D TOTAL        ACCESS:   10757205 HIT:    8985979 MISS:    1771226
cpu0_L1D LOAD         ACCESS:    6521604 HIT:    5800531 MISS:     721073
cpu0_L1D RFO          ACCESS:          0 HIT:          0 MISS:          0
cpu0_L1D PREFETCH     ACCESS:    3000560 HIT:    1957222 MISS:    1043338
cpu0_L1D WRITE        ACCESS:    1228206 HIT:    1228203 MISS:          3
cpu0_L1D TRANSLATION  ACCESS:       6835 HIT:         23 MISS:       6812
cpu0_L1D PREFETCH REQUESTED:    6861975 ISSUED:    3000558 USEFUL:     337322 USELESS:      13753
cpu0_L1D AVERAGE MISS LATENCY: 122.7 cycles
cpu0_L1I TOTAL        ACCESS:          0 HIT:          0 MISS:          0
cpu0_L1I LOAD         ACCESS:          0 HIT:          0 MISS:          0
cpu0_L1I RFO          ACCESS:          0 HIT:          0 MISS:          0
cpu0_L1I PREFETCH     ACCESS:          0 HIT:          0 MISS:          0
cpu0_L1I WRITE        ACCESS:          0 HIT:          0 MISS:          0
cpu0_L1I TRANSLATION  ACCESS:          0 HIT:          0 MISS:          0
cpu0_L1I PREFETCH REQUESTED:          0 ISSUED:          0 USEFUL:          0 USELESS:          0
cpu0_L1I AVERAGE MISS LATENCY: -nan cycles
cpu0_L2C TOTAL        ACCESS:     685557 HIT:     246101 MISS:     439456
cpu0_L2C LOAD         ACCESS:      86284 HIT:      39130 MISS:      47154
cpu0_L2C RFO          ACCESS:          3 HIT:          3 MISS:          0
cpu0_L2C PREFETCH     ACCESS:     461892 HIT:      70210 MISS:     391682
cpu0_L2C WRITE        ACCESS:     130566 HIT:     130504 MISS:         62
cpu0_L2C TRANSLATION  ACCESS:       6812 HIT:       6254 MISS:        558
cpu0_L2C PREFETCH REQUESTED:     110817 ISSUED:     110817 USEFUL:      39990 USELESS:       3327
cpu0_L2C AVERAGE MISS LATENCY: 873.5 cycles
cpu0_STLB TOTAL        ACCESS:      13971 HIT:       7148 MISS:       6823
cpu0_STLB LOAD         ACCESS:      13971 HIT:       7148 MISS:       6823
cpu0_STLB RFO          ACCESS:          0 HIT:          0 MISS:          0
cpu0_STLB PREFETCH     ACCESS:          0 HIT:          0 MISS:          0
cpu0_STLB WRITE        ACCESS:          0 HIT:          0 MISS:          0
cpu0_STLB TRANSLATION  ACCESS:          0 HIT:          0 MISS:          0
cpu0_STLB PREFETCH REQUESTED:          0 ISSUED:          0 USEFUL:          0 USELESS:          0
cpu0_STLB AVERAGE MISS LATENCY: 251.2 cycles

DRAM Statistics

Channel 0 RQ ROW_BUFFER_HIT:     177754
  ROW_BUFFER_MISS:     243395
 AVG DBUS CONGESTED CYCLE: 3.854
WQ ROW_BUFFER_HIT: Channel 0 
  ROW_BUFFER_MISS:      30966
  FULL:      98809
OPTgen accesses: 657
OPTgen hits: 32
OPTgen hit rate: 4.87063


