WARNING: physical memory size is smaller than virtual memory size.

*** ChampSim Multicore Out-of-Order Simulator ***
Warmup Instructions: 25000000
Simulation Instructions: 25000000
Number of CPUs: 1
Page size: 4096

Initialize Hawkeye state
Off-chip DRAM Size: 4 GiB Channels: 1 Width: 64-bit Data Race: 800 MT/s
Heartbeat CPU 0 instructions: 10000003 cycles: 2500445 heartbeat IPC: 3.999 cumulative IPC: 3.999 (Simulation time: 00 hr 00 min 30 sec)
Heartbeat CPU 0 instructions: 20000003 cycles: 5001154 heartbeat IPC: 3.999 cumulative IPC: 3.999 (Simulation time: 00 hr 01 min 07 sec)
Warmup finished CPU 0 instructions: 25000003 cycles: 6251155 cumulative IPC: 3.999 (Simulation time: 00 hr 01 min 26 sec)
Warmup complete CPU 0 instructions: 25000003 cycles: 6251155 cumulative IPC: 3.999 (Simulation time: 00 hr 01 min 26 sec)
Heartbeat CPU 0 instructions: 30000002 cycles: 10084710 heartbeat IPC: 1.967 cumulative IPC: 1.304 (Simulation time: 00 hr 02 min 08 sec)
Heartbeat CPU 0 instructions: 40000000 cycles: 19601272 heartbeat IPC: 1.051 cumulative IPC: 1.124 (Simulation time: 00 hr 03 min 49 sec)
Heartbeat CPU 0 instructions: 50000002 cycles: 27997073 heartbeat IPC: 1.191 cumulative IPC: 1.15 (Simulation time: 00 hr 05 min 28 sec)
Simulation finished CPU 0 instructions: 25000003 cycles: 21745920 cumulative IPC: 1.15 (Simulation time: 00 hr 05 min 28 sec)
Simulation complete CPU 0 instructions: 25000003 cycles: 21745920 cumulative IPC: 1.15 (Simulation time: 00 hr 05 min 28 sec)

ChampSim completed all CPUs

=== Simulation ===
CPU 0 runs ./traces/654.roms_s-293B.champsimtrace.xz
Region of Interest Statistics

CPU 0 cumulative IPC: 1.15 instructions: 25000003 cycles: 21745920
CPU 0 Branch Prediction Accuracy: 99.8% MPKI: 0.02352 Average ROB Occupancy at Mispredict: 347.1
Branch type MPKI
BRANCH_DIRECT_JUMP: 0
BRANCH_INDIRECT: 0
BRANCH_CONDITIONAL: 0.0235
BRANCH_DIRECT_CALL: 0
BRANCH_INDIRECT_CALL: 0
BRANCH_RETURN: 0

LLC TOTAL        ACCESS:     386630 HIT:     186975 MISS:     199655
LLC LOAD         ACCESS:      30278 HIT:      15017 MISS:      15261
LLC RFO          ACCESS:     128296 HIT:      45790 MISS:      82506
LLC PREFETCH     ACCESS:      98836 HIT:      35834 MISS:      63002
LLC WRITE        ACCESS:     125752 HIT:      90046 MISS:      35706
LLC TRANSLATION  ACCESS:       3468 HIT:        288 MISS:       3180
LLC PREFETCH REQUESTED:          0 ISSUED:          0 USEFUL:          0 USELESS:          0
LLC AVERAGE MISS LATENCY: 937.5 cycles
cpu0_DTLB TOTAL        ACCESS:    5928936 HIT:    5906250 MISS:      22686
cpu0_DTLB LOAD         ACCESS:    5928936 HIT:    5906250 MISS:      22686
cpu0_DTLB RFO          ACCESS:          0 HIT:          0 MISS:          0
cpu0_DTLB PREFETCH     ACCESS:          0 HIT:          0 MISS:          0
cpu0_DTLB WRITE        ACCESS:          0 HIT:          0 MISS:          0
cpu0_DTLB TRANSLATION  ACCESS:          0 HIT:          0 MISS:          0
cpu0_DTLB PREFETCH REQUESTED:          0 ISSUED:          0 USEFUL:          0 USELESS:          0
cpu0_DTLB AVERAGE MISS LATENCY: 124.6 cycles
cpu0_ITLB TOTAL        ACCESS:        290 HIT:        290 MISS:          0
cpu0_ITLB LOAD         ACCESS:        290 HIT:        290 MISS:          0
cpu0_ITLB RFO          ACCESS:          0 HIT:          0 MISS:          0
cpu0_ITLB PREFETCH     ACCESS:          0 HIT:          0 MISS:          0
cpu0_ITLB WRITE        ACCESS:          0 HIT:          0 MISS:          0
cpu0_ITLB TRANSLATION  ACCESS:          0 HIT:          0 MISS:          0
cpu0_ITLB PREFETCH REQUESTED:          0 ISSUED:          0 USEFUL:          0 USELESS:          0
cpu0_ITLB AVERAGE MISS LATENCY: -nan cycles
cpu0_L1D TOTAL        ACCESS:    9825237 HIT:    8569167 MISS:    1256070
cpu0_L1D LOAD         ACCESS:    4658896 HIT:    4336139 MISS:     322757
cpu0_L1D RFO          ACCESS:          0 HIT:          0 MISS:          0
cpu0_L1D PREFETCH     ACCESS:    2805983 HIT:    2507743 MISS:     298240
cpu0_L1D WRITE        ACCESS:    2356742 HIT:    1725258 MISS:     631484
cpu0_L1D TRANSLATION  ACCESS:       3616 HIT:         27 MISS:       3589
cpu0_L1D PREFETCH REQUESTED:    5083618 ISSUED:    2805984 USEFUL:      90728 USELESS:       2817
cpu0_L1D AVERAGE MISS LATENCY: 92.97 cycles
cpu0_L1I TOTAL        ACCESS:        392 HIT:        392 MISS:          0
cpu0_L1I LOAD         ACCESS:        392 HIT:        392 MISS:          0
cpu0_L1I RFO          ACCESS:          0 HIT:          0 MISS:          0
cpu0_L1I PREFETCH     ACCESS:          0 HIT:          0 MISS:          0
cpu0_L1I WRITE        ACCESS:          0 HIT:          0 MISS:          0
cpu0_L1I TRANSLATION  ACCESS:          0 HIT:          0 MISS:          0
cpu0_L1I PREFETCH REQUESTED:          0 ISSUED:          0 USEFUL:          0 USELESS:          0
cpu0_L1I AVERAGE MISS LATENCY: -nan cycles
cpu0_L2C TOTAL        ACCESS:     509279 HIT:     237532 MISS:     271747
cpu0_L2C LOAD         ACCESS:      71291 HIT:      38088 MISS:      33203
cpu0_L2C RFO          ACCESS:     128523 HIT:        226 MISS:     128297
cpu0_L2C PREFETCH     ACCESS:     177200 HIT:      70796 MISS:     106404
cpu0_L2C WRITE        ACCESS:     128696 HIT:     128321 MISS:        375
cpu0_L2C TRANSLATION  ACCESS:       3569 HIT:        101 MISS:       3468
cpu0_L2C PREFETCH REQUESTED:      83650 ISSUED:      83650 USEFUL:      25471 USELESS:       2902
cpu0_L2C AVERAGE MISS LATENCY: 701.4 cycles
cpu0_STLB TOTAL        ACCESS:       6346 HIT:       3974 MISS:       2372
cpu0_STLB LOAD         ACCESS:       6346 HIT:       3974 MISS:       2372
cpu0_STLB RFO          ACCESS:          0 HIT:          0 MISS:          0
cpu0_STLB PREFETCH     ACCESS:          0 HIT:          0 MISS:          0
cpu0_STLB WRITE        ACCESS:          0 HIT:          0 MISS:          0
cpu0_STLB TRANSLATION  ACCESS:          0 HIT:          0 MISS:          0
cpu0_STLB PREFETCH REQUESTED:          0 ISSUED:          0 USEFUL:          0 USELESS:          0
cpu0_STLB AVERAGE MISS LATENCY: 1687 cycles

DRAM Statistics

Channel 0 RQ ROW_BUFFER_HIT:      34865
  ROW_BUFFER_MISS:     126911
 AVG DBUS CONGESTED CYCLE: 3.953
WQ ROW_BUFFER_HIT: Channel 0 
  ROW_BUFFER_MISS:       3266
  FULL:      99938
OPTgen accesses: 1306
OPTgen hits: 820
OPTgen hit rate: 62.7872


