WARNING: physical memory size is smaller than virtual memory size.

*** ChampSim Multicore Out-of-Order Simulator ***
Warmup Instructions: 25000000
Simulation Instructions: 25000000
Number of CPUs: 1
Page size: 4096

Initialize Hawkeye state
Off-chip DRAM Size: 4 GiB Channels: 1 Width: 64-bit Data Race: 800 MT/s
Heartbeat CPU 0 instructions: 10000003 cycles: 2500108 heartbeat IPC: 4 cumulative IPC: 4 (Simulation time: 00 hr 00 min 39 sec)
Heartbeat CPU 0 instructions: 20000003 cycles: 5000108 heartbeat IPC: 4 cumulative IPC: 4 (Simulation time: 00 hr 01 min 18 sec)
Warmup finished CPU 0 instructions: 25000003 cycles: 6250109 cumulative IPC: 4 (Simulation time: 00 hr 01 min 37 sec)
Warmup complete CPU 0 instructions: 25000003 cycles: 6250109 cumulative IPC: 4 (Simulation time: 00 hr 01 min 37 sec)
Heartbeat CPU 0 instructions: 30000000 cycles: 24280803 heartbeat IPC: 0.5187 cumulative IPC: 0.2773 (Simulation time: 00 hr 04 min 28 sec)
Heartbeat CPU 0 instructions: 40000002 cycles: 47823298 heartbeat IPC: 0.4248 cumulative IPC: 0.3608 (Simulation time: 00 hr 08 min 25 sec)
Heartbeat CPU 0 instructions: 50000000 cycles: 65602962 heartbeat IPC: 0.5624 cumulative IPC: 0.4212 (Simulation time: 00 hr 11 min 14 sec)
Simulation finished CPU 0 instructions: 25000001 cycles: 59352855 cumulative IPC: 0.4212 (Simulation time: 00 hr 11 min 14 sec)
Simulation complete CPU 0 instructions: 25000001 cycles: 59352855 cumulative IPC: 0.4212 (Simulation time: 00 hr 11 min 14 sec)

ChampSim completed all CPUs

=== Simulation ===
CPU 0 runs ./traces/654.roms_s-1070B.champsimtrace.xz
Region of Interest Statistics

CPU 0 cumulative IPC: 0.4212 instructions: 25000001 cycles: 59352855
CPU 0 Branch Prediction Accuracy: 99.88% MPKI: 0.06228 Average ROB Occupancy at Mispredict: 351.7
Branch type MPKI
BRANCH_DIRECT_JUMP: 0
BRANCH_INDIRECT: 0
BRANCH_CONDITIONAL: 0.0623
BRANCH_DIRECT_CALL: 0
BRANCH_INDIRECT_CALL: 0
BRANCH_RETURN: 0

LLC TOTAL        ACCESS:     729719 HIT:      52514 MISS:     677205
LLC LOAD         ACCESS:      44128 HIT:       2377 MISS:      41751
LLC RFO          ACCESS:     167090 HIT:      13679 MISS:     153411
LLC PREFETCH     ACCESS:     348613 HIT:      18718 MISS:     329895
LLC WRITE        ACCESS:     167086 HIT:      17726 MISS:     149360
LLC TRANSLATION  ACCESS:       2802 HIT:         14 MISS:       2788
LLC PREFETCH REQUESTED:          0 ISSUED:          0 USEFUL:          0 USELESS:          0
LLC AVERAGE MISS LATENCY: 975.8 cycles
cpu0_DTLB TOTAL        ACCESS:    6676221 HIT:    6616018 MISS:      60203
cpu0_DTLB LOAD         ACCESS:    6676221 HIT:    6616018 MISS:      60203
cpu0_DTLB RFO          ACCESS:          0 HIT:          0 MISS:          0
cpu0_DTLB PREFETCH     ACCESS:          0 HIT:          0 MISS:          0
cpu0_DTLB WRITE        ACCESS:          0 HIT:          0 MISS:          0
cpu0_DTLB TRANSLATION  ACCESS:          0 HIT:          0 MISS:          0
cpu0_DTLB PREFETCH REQUESTED:          0 ISSUED:          0 USEFUL:          0 USELESS:          0
cpu0_DTLB AVERAGE MISS LATENCY: 40.66 cycles
cpu0_ITLB TOTAL        ACCESS:          0 HIT:          0 MISS:          0
cpu0_ITLB LOAD         ACCESS:          0 HIT:          0 MISS:          0
cpu0_ITLB RFO          ACCESS:          0 HIT:          0 MISS:          0
cpu0_ITLB PREFETCH     ACCESS:          0 HIT:          0 MISS:          0
cpu0_ITLB WRITE        ACCESS:          0 HIT:          0 MISS:          0
cpu0_ITLB TRANSLATION  ACCESS:          0 HIT:          0 MISS:          0
cpu0_ITLB PREFETCH REQUESTED:          0 ISSUED:          0 USEFUL:          0 USELESS:          0
cpu0_ITLB AVERAGE MISS LATENCY: -nan cycles
cpu0_L1D TOTAL        ACCESS:   11246711 HIT:    5752464 MISS:    5494247
cpu0_L1D LOAD         ACCESS:    7111904 HIT:    4474874 MISS:    2637030
cpu0_L1D RFO          ACCESS:          0 HIT:          0 MISS:          0
cpu0_L1D PREFETCH     ACCESS:    2793638 HIT:    1185202 MISS:    1608436
cpu0_L1D WRITE        ACCESS:    1329057 HIT:      91418 MISS:    1237639
cpu0_L1D TRANSLATION  ACCESS:      12112 HIT:        970 MISS:      11142
cpu0_L1D PREFETCH REQUESTED:    8273220 ISSUED:    2793632 USEFUL:     327111 USELESS:       6149
cpu0_L1D AVERAGE MISS LATENCY: 65.57 cycles
cpu0_L1I TOTAL        ACCESS:          0 HIT:          0 MISS:          0
cpu0_L1I LOAD         ACCESS:          0 HIT:          0 MISS:          0
cpu0_L1I RFO          ACCESS:          0 HIT:          0 MISS:          0
cpu0_L1I PREFETCH     ACCESS:          0 HIT:          0 MISS:          0
cpu0_L1I WRITE        ACCESS:          0 HIT:          0 MISS:          0
cpu0_L1I TRANSLATION  ACCESS:          0 HIT:          0 MISS:          0
cpu0_L1I PREFETCH REQUESTED:          0 ISSUED:          0 USEFUL:          0 USELESS:          0
cpu0_L1I AVERAGE MISS LATENCY: -nan cycles
cpu0_L2C TOTAL        ACCESS:     757445 HIT:     183723 MISS:     573722
cpu0_L2C LOAD         ACCESS:      50745 HIT:       4367 MISS:      46378
cpu0_L2C RFO          ACCESS:     167091 HIT:          1 MISS:     167090
cpu0_L2C PREFETCH     ACCESS:     360303 HIT:       2858 MISS:     357445
cpu0_L2C WRITE        ACCESS:     168164 HIT:     168157 MISS:          7
cpu0_L2C TRANSLATION  ACCESS:      11142 HIT:       8340 MISS:       2802
cpu0_L2C PREFETCH REQUESTED:      27044 ISSUED:      27044 USEFUL:       4465 USELESS:       4671
cpu0_L2C AVERAGE MISS LATENCY: 1154 cycles
cpu0_STLB TOTAL        ACCESS:      12085 HIT:          6 MISS:      12079
cpu0_STLB LOAD         ACCESS:      12085 HIT:          6 MISS:      12079
cpu0_STLB RFO          ACCESS:          0 HIT:          0 MISS:          0
cpu0_STLB PREFETCH     ACCESS:          0 HIT:          0 MISS:          0
cpu0_STLB WRITE        ACCESS:          0 HIT:          0 MISS:          0
cpu0_STLB TRANSLATION  ACCESS:          0 HIT:          0 MISS:          0
cpu0_STLB PREFETCH REQUESTED:          0 ISSUED:          0 USEFUL:          0 USELESS:          0
cpu0_STLB AVERAGE MISS LATENCY: 432.5 cycles

DRAM Statistics

Channel 0 RQ ROW_BUFFER_HIT:      91680
  ROW_BUFFER_MISS:     424456
 AVG DBUS CONGESTED CYCLE: 3.948
WQ ROW_BUFFER_HIT: Channel 0 
  ROW_BUFFER_MISS:      18954
  FULL:     134473
OPTgen accesses: 1813
OPTgen hits: 104
OPTgen hit rate: 5.73635


