WARNING: physical memory size is smaller than virtual memory size.

*** ChampSim Multicore Out-of-Order Simulator ***
Warmup Instructions: 25000000
Simulation Instructions: 25000000
Number of CPUs: 1
Page size: 4096

Initialize Hawkeye state
Off-chip DRAM Size: 4 GiB Channels: 1 Width: 64-bit Data Race: 800 MT/s
Heartbeat CPU 0 instructions: 10000003 cycles: 2501569 heartbeat IPC: 3.997 cumulative IPC: 3.997 (Simulation time: 00 hr 00 min 32 sec)
Heartbeat CPU 0 instructions: 20000002 cycles: 5003051 heartbeat IPC: 3.998 cumulative IPC: 3.998 (Simulation time: 00 hr 01 min 08 sec)
Warmup finished CPU 0 instructions: 25000001 cycles: 6265425 cumulative IPC: 3.99 (Simulation time: 00 hr 01 min 27 sec)
Warmup complete CPU 0 instructions: 25000001 cycles: 6265425 cumulative IPC: 3.99 (Simulation time: 00 hr 01 min 27 sec)
Heartbeat CPU 0 instructions: 30000003 cycles: 10816653 heartbeat IPC: 1.72 cumulative IPC: 1.099 (Simulation time: 00 hr 02 min 05 sec)
Heartbeat CPU 0 instructions: 40000000 cycles: 19591799 heartbeat IPC: 1.14 cumulative IPC: 1.126 (Simulation time: 00 hr 03 min 18 sec)
Heartbeat CPU 0 instructions: 50000000 cycles: 28532294 heartbeat IPC: 1.119 cumulative IPC: 1.123 (Simulation time: 00 hr 04 min 34 sec)
Simulation finished CPU 0 instructions: 25000003 cycles: 22266871 cumulative IPC: 1.123 (Simulation time: 00 hr 04 min 34 sec)
Simulation complete CPU 0 instructions: 25000003 cycles: 22266871 cumulative IPC: 1.123 (Simulation time: 00 hr 04 min 34 sec)

ChampSim completed all CPUs

=== Simulation ===
CPU 0 runs ./traces/657.xz_s-2302B.champsimtrace.xz
Region of Interest Statistics

CPU 0 cumulative IPC: 1.123 instructions: 25000003 cycles: 22266871
CPU 0 Branch Prediction Accuracy: 85.76% MPKI: 18.42 Average ROB Occupancy at Mispredict: 28.57
Branch type MPKI
BRANCH_DIRECT_JUMP: 0.122
BRANCH_INDIRECT: 1.07
BRANCH_CONDITIONAL: 17.2
BRANCH_DIRECT_CALL: 0
BRANCH_INDIRECT_CALL: 0.00356
BRANCH_RETURN: 0

LLC TOTAL        ACCESS:     309022 HIT:     225261 MISS:      83761
LLC LOAD         ACCESS:      97338 HIT:      60638 MISS:      36700
LLC RFO          ACCESS:       8326 HIT:       4894 MISS:       3432
LLC PREFETCH     ACCESS:     105539 HIT:      65932 MISS:      39607
LLC WRITE        ACCESS:      83355 HIT:      80295 MISS:       3060
LLC TRANSLATION  ACCESS:      14464 HIT:      13502 MISS:        962
LLC PREFETCH REQUESTED:          0 ISSUED:          0 USEFUL:          0 USELESS:          0
LLC AVERAGE MISS LATENCY: 258.5 cycles
cpu0_DTLB TOTAL        ACCESS:    5602911 HIT:    5413840 MISS:     189071
cpu0_DTLB LOAD         ACCESS:    5602911 HIT:    5413840 MISS:     189071
cpu0_DTLB RFO          ACCESS:          0 HIT:          0 MISS:          0
cpu0_DTLB PREFETCH     ACCESS:          0 HIT:          0 MISS:          0
cpu0_DTLB WRITE        ACCESS:          0 HIT:          0 MISS:          0
cpu0_DTLB TRANSLATION  ACCESS:          0 HIT:          0 MISS:          0
cpu0_DTLB PREFETCH REQUESTED:          0 ISSUED:          0 USEFUL:          0 USELESS:          0
cpu0_DTLB AVERAGE MISS LATENCY: 11.5 cycles
cpu0_ITLB TOTAL        ACCESS:     224607 HIT:     224607 MISS:          0
cpu0_ITLB LOAD         ACCESS:     224607 HIT:     224607 MISS:          0
cpu0_ITLB RFO          ACCESS:          0 HIT:          0 MISS:          0
cpu0_ITLB PREFETCH     ACCESS:          0 HIT:          0 MISS:          0
cpu0_ITLB WRITE        ACCESS:          0 HIT:          0 MISS:          0
cpu0_ITLB TRANSLATION  ACCESS:          0 HIT:          0 MISS:          0
cpu0_ITLB PREFETCH REQUESTED:          0 ISSUED:          0 USEFUL:          0 USELESS:          0
cpu0_ITLB AVERAGE MISS LATENCY: -nan cycles
cpu0_L1D TOTAL        ACCESS:   11230422 HIT:   10686632 MISS:     543790
cpu0_L1D LOAD         ACCESS:    5035123 HIT:    4795170 MISS:     239953
cpu0_L1D RFO          ACCESS:          0 HIT:          0 MISS:          0
cpu0_L1D PREFETCH     ACCESS:    4209436 HIT:    3959662 MISS:     249774
cpu0_L1D WRITE        ACCESS:    1963716 HIT:    1931146 MISS:      32570
cpu0_L1D TRANSLATION  ACCESS:      22147 HIT:        654 MISS:      21493
cpu0_L1D PREFETCH REQUESTED:    5049742 ISSUED:    4209440 USEFUL:      26043 USELESS:     146522
cpu0_L1D AVERAGE MISS LATENCY: 54.54 cycles
cpu0_L1I TOTAL        ACCESS:     276629 HIT:     276565 MISS:         64
cpu0_L1I LOAD         ACCESS:     276629 HIT:     276565 MISS:         64
cpu0_L1I RFO          ACCESS:          0 HIT:          0 MISS:          0
cpu0_L1I PREFETCH     ACCESS:          0 HIT:          0 MISS:          0
cpu0_L1I WRITE        ACCESS:          0 HIT:          0 MISS:          0
cpu0_L1I TRANSLATION  ACCESS:          0 HIT:          0 MISS:          0
cpu0_L1I PREFETCH REQUESTED:          0 ISSUED:          0 USEFUL:          0 USELESS:          0
cpu0_L1I AVERAGE MISS LATENCY: 263.5 cycles
cpu0_L2C TOTAL        ACCESS:     519779 HIT:     292628 MISS:     227151
cpu0_L2C LOAD         ACCESS:     164820 HIT:      67413 MISS:      97407
cpu0_L2C RFO          ACCESS:      23233 HIT:      14907 MISS:       8326
cpu0_L2C PREFETCH     ACCESS:     178322 HIT:      71872 MISS:     106450
cpu0_L2C WRITE        ACCESS:     131923 HIT:     131419 MISS:        504
cpu0_L2C TRANSLATION  ACCESS:      21481 HIT:       7017 MISS:      14464
cpu0_L2C PREFETCH REQUESTED:       5737 ISSUED:       5737 USEFUL:        445 USELESS:        901
cpu0_L2C AVERAGE MISS LATENCY: 115.5 cycles
cpu0_STLB TOTAL        ACCESS:     148451 HIT:     126312 MISS:      22139
cpu0_STLB LOAD         ACCESS:     148451 HIT:     126312 MISS:      22139
cpu0_STLB RFO          ACCESS:          0 HIT:          0 MISS:          0
cpu0_STLB PREFETCH     ACCESS:          0 HIT:          0 MISS:          0
cpu0_STLB WRITE        ACCESS:          0 HIT:          0 MISS:          0
cpu0_STLB TRANSLATION  ACCESS:          0 HIT:          0 MISS:          0
cpu0_STLB PREFETCH REQUESTED:          0 ISSUED:          0 USEFUL:          0 USELESS:          0
cpu0_STLB AVERAGE MISS LATENCY: 49.56 cycles

DRAM Statistics

Channel 0 RQ ROW_BUFFER_HIT:       1753
  ROW_BUFFER_MISS:      78940
 AVG DBUS CONGESTED CYCLE: 3.956
WQ ROW_BUFFER_HIT: Channel 0 
  ROW_BUFFER_MISS:       8239
  FULL:      31109
OPTgen accesses: 821
OPTgen hits: 745
OPTgen hit rate: 90.743


