WARNING: physical memory size is smaller than virtual memory size.

*** ChampSim Multicore Out-of-Order Simulator ***
Warmup Instructions: 25000000
Simulation Instructions: 25000000
Number of CPUs: 1
Page size: 4096

Initialize Hawkeye state
Off-chip DRAM Size: 4 GiB Channels: 1 Width: 64-bit Data Race: 800 MT/s
Heartbeat CPU 0 instructions: 10000000 cycles: 2503066 heartbeat IPC: 3.995 cumulative IPC: 3.995 (Simulation time: 00 hr 00 min 34 sec)
Heartbeat CPU 0 instructions: 20000001 cycles: 5007531 heartbeat IPC: 3.993 cumulative IPC: 3.994 (Simulation time: 00 hr 01 min 11 sec)
Warmup finished CPU 0 instructions: 25000000 cycles: 6259011 cumulative IPC: 3.994 (Simulation time: 00 hr 01 min 34 sec)
Warmup complete CPU 0 instructions: 25000000 cycles: 6259011 cumulative IPC: 3.994 (Simulation time: 00 hr 01 min 34 sec)
Heartbeat CPU 0 instructions: 30000001 cycles: 9626056 heartbeat IPC: 2.165 cumulative IPC: 1.485 (Simulation time: 00 hr 02 min 08 sec)
Heartbeat CPU 0 instructions: 40000002 cycles: 17130736 heartbeat IPC: 1.333 cumulative IPC: 1.38 (Simulation time: 00 hr 03 min 20 sec)
Heartbeat CPU 0 instructions: 50000001 cycles: 24357310 heartbeat IPC: 1.384 cumulative IPC: 1.381 (Simulation time: 00 hr 04 min 26 sec)
Simulation finished CPU 0 instructions: 25000001 cycles: 18098300 cumulative IPC: 1.381 (Simulation time: 00 hr 04 min 26 sec)
Simulation complete CPU 0 instructions: 25000001 cycles: 18098300 cumulative IPC: 1.381 (Simulation time: 00 hr 04 min 26 sec)

ChampSim completed all CPUs

=== Simulation ===
CPU 0 runs ./traces/657.xz_s-3167B.champsimtrace.xz
Region of Interest Statistics

CPU 0 cumulative IPC: 1.381 instructions: 25000001 cycles: 18098300
CPU 0 Branch Prediction Accuracy: 89.96% MPKI: 14.78 Average ROB Occupancy at Mispredict: 34.25
Branch type MPKI
BRANCH_DIRECT_JUMP: 0.0787
BRANCH_INDIRECT: 0.897
BRANCH_CONDITIONAL: 13.8
BRANCH_DIRECT_CALL: 0
BRANCH_INDIRECT_CALL: 0.00248
BRANCH_RETURN: 0

LLC TOTAL        ACCESS:     215933 HIT:     153481 MISS:      62452
LLC LOAD         ACCESS:      63614 HIT:      38323 MISS:      25291
LLC RFO          ACCESS:      12104 HIT:       5549 MISS:       6555
LLC PREFETCH     ACCESS:      69619 HIT:      42512 MISS:      27107
LLC WRITE        ACCESS:      58252 HIT:      55306 MISS:       2946
LLC TRANSLATION  ACCESS:      12344 HIT:      11791 MISS:        553
LLC PREFETCH REQUESTED:          0 ISSUED:          0 USEFUL:          0 USELESS:          0
LLC AVERAGE MISS LATENCY: 266.3 cycles
cpu0_DTLB TOTAL        ACCESS:    5182839 HIT:    5007278 MISS:     175561
cpu0_DTLB LOAD         ACCESS:    5182839 HIT:    5007278 MISS:     175561
cpu0_DTLB RFO          ACCESS:          0 HIT:          0 MISS:          0
cpu0_DTLB PREFETCH     ACCESS:          0 HIT:          0 MISS:          0
cpu0_DTLB WRITE        ACCESS:          0 HIT:          0 MISS:          0
cpu0_DTLB TRANSLATION  ACCESS:          0 HIT:          0 MISS:          0
cpu0_DTLB PREFETCH REQUESTED:          0 ISSUED:          0 USEFUL:          0 USELESS:          0
cpu0_DTLB AVERAGE MISS LATENCY: 12 cycles
cpu0_ITLB TOTAL        ACCESS:     176586 HIT:     176586 MISS:          0
cpu0_ITLB LOAD         ACCESS:     176586 HIT:     176586 MISS:          0
cpu0_ITLB RFO          ACCESS:          0 HIT:          0 MISS:          0
cpu0_ITLB PREFETCH     ACCESS:          0 HIT:          0 MISS:          0
cpu0_ITLB WRITE        ACCESS:          0 HIT:          0 MISS:          0
cpu0_ITLB TRANSLATION  ACCESS:          0 HIT:          0 MISS:          0
cpu0_ITLB PREFETCH REQUESTED:          0 ISSUED:          0 USEFUL:          0 USELESS:          0
cpu0_ITLB AVERAGE MISS LATENCY: -nan cycles
cpu0_L1D TOTAL        ACCESS:   11022642 HIT:   10542602 MISS:     480040
cpu0_L1D LOAD         ACCESS:    5062319 HIT:    4872543 MISS:     189776
cpu0_L1D RFO          ACCESS:          0 HIT:          0 MISS:          0
cpu0_L1D PREFETCH     ACCESS:    4242260 HIT:    4042305 MISS:     199955
cpu0_L1D WRITE        ACCESS:    1700226 HIT:    1627190 MISS:      73036
cpu0_L1D TRANSLATION  ACCESS:      17837 HIT:        564 MISS:      17273
cpu0_L1D PREFETCH REQUESTED:    5072609 ISSUED:    4242259 USEFUL:      23081 USELESS:     118184
cpu0_L1D AVERAGE MISS LATENCY: 46.45 cycles
cpu0_L1I TOTAL        ACCESS:     214618 HIT:     214470 MISS:        148
cpu0_L1I LOAD         ACCESS:     214618 HIT:     214470 MISS:        148
cpu0_L1I RFO          ACCESS:          0 HIT:          0 MISS:          0
cpu0_L1I PREFETCH     ACCESS:          0 HIT:          0 MISS:          0
cpu0_L1I WRITE        ACCESS:          0 HIT:          0 MISS:          0
cpu0_L1I TRANSLATION  ACCESS:          0 HIT:          0 MISS:          0
cpu0_L1I PREFETCH REQUESTED:          0 ISSUED:          0 USEFUL:          0 USELESS:          0
cpu0_L1I AVERAGE MISS LATENCY: 44.74 cycles
cpu0_L2C TOTAL        ACCESS:     497096 HIT:     337383 MISS:     159713
cpu0_L2C LOAD         ACCESS:     134297 HIT:      70564 MISS:      63733
cpu0_L2C RFO          ACCESS:      49176 HIT:      37072 MISS:      12104
cpu0_L2C PREFETCH     ACCESS:     150080 HIT:      78744 MISS:      71336
cpu0_L2C WRITE        ACCESS:     146281 HIT:     146085 MISS:        196
cpu0_L2C TRANSLATION  ACCESS:      17262 HIT:       4918 MISS:      12344
cpu0_L2C PREFETCH REQUESTED:       8839 ISSUED:       8839 USEFUL:        920 USELESS:       1137
cpu0_L2C AVERAGE MISS LATENCY: 124.2 cycles
cpu0_STLB TOTAL        ACCESS:     144113 HIT:     126276 MISS:      17837
cpu0_STLB LOAD         ACCESS:     144113 HIT:     126276 MISS:      17837
cpu0_STLB RFO          ACCESS:          0 HIT:          0 MISS:          0
cpu0_STLB PREFETCH     ACCESS:          0 HIT:          0 MISS:          0
cpu0_STLB WRITE        ACCESS:          0 HIT:          0 MISS:          0
cpu0_STLB TRANSLATION  ACCESS:          0 HIT:          0 MISS:          0
cpu0_STLB PREFETCH REQUESTED:          0 ISSUED:          0 USEFUL:          0 USELESS:          0
cpu0_STLB AVERAGE MISS LATENCY: 58.75 cycles

DRAM Statistics

Channel 0 RQ ROW_BUFFER_HIT:       2803
  ROW_BUFFER_MISS:      56699
 AVG DBUS CONGESTED CYCLE: 3.963
WQ ROW_BUFFER_HIT: Channel 0 
  ROW_BUFFER_MISS:       4836
  FULL:      25831
OPTgen accesses: 501
OPTgen hits: 390
OPTgen hit rate: 77.8444


