WARNING: physical memory size is smaller than virtual memory size.

*** ChampSim Multicore Out-of-Order Simulator ***
Warmup Instructions: 25000000
Simulation Instructions: 25000000
Number of CPUs: 1
Page size: 4096

Initialize Hawkeye state
Off-chip DRAM Size: 4 GiB Channels: 1 Width: 64-bit Data Race: 800 MT/s
Heartbeat CPU 0 instructions: 10000001 cycles: 2992674 heartbeat IPC: 3.341 cumulative IPC: 3.341 (Simulation time: 00 hr 00 min 45 sec)
Heartbeat CPU 0 instructions: 20000001 cycles: 5657124 heartbeat IPC: 3.753 cumulative IPC: 3.535 (Simulation time: 00 hr 01 min 31 sec)
Warmup finished CPU 0 instructions: 25000003 cycles: 7071214 cumulative IPC: 3.535 (Simulation time: 00 hr 01 min 55 sec)
Warmup complete CPU 0 instructions: 25000003 cycles: 7071214 cumulative IPC: 3.535 (Simulation time: 00 hr 01 min 55 sec)
Heartbeat CPU 0 instructions: 30000003 cycles: 62248765 heartbeat IPC: 0.1767 cumulative IPC: 0.09062 (Simulation time: 00 hr 07 min 54 sec)
Heartbeat CPU 0 instructions: 40000003 cycles: 175866308 heartbeat IPC: 0.08801 cumulative IPC: 0.08887 (Simulation time: 00 hr 20 min 10 sec)
Heartbeat CPU 0 instructions: 50000001 cycles: 278916838 heartbeat IPC: 0.09704 cumulative IPC: 0.09196 (Simulation time: 00 hr 25 min 05 sec)
Simulation finished CPU 0 instructions: 25000002 cycles: 271845626 cumulative IPC: 0.09196 (Simulation time: 00 hr 25 min 05 sec)
Simulation complete CPU 0 instructions: 25000002 cycles: 271845626 cumulative IPC: 0.09196 (Simulation time: 00 hr 25 min 05 sec)

ChampSim completed all CPUs

=== Simulation ===
CPU 0 runs ./traces/astar_313B.trace.xz
Region of Interest Statistics

CPU 0 cumulative IPC: 0.09196 instructions: 25000002 cycles: 271845626
CPU 0 Branch Prediction Accuracy: 86.94% MPKI: 27.53 Average ROB Occupancy at Mispredict: 14.94
Branch type MPKI
BRANCH_DIRECT_JUMP: 0
BRANCH_INDIRECT: 0
BRANCH_CONDITIONAL: 27.5
BRANCH_DIRECT_CALL: 0
BRANCH_INDIRECT_CALL: 0.00048
BRANCH_RETURN: 0.00032

LLC TOTAL        ACCESS:    2779742 HIT:     551609 MISS:    2228133
LLC LOAD         ACCESS:     483949 HIT:     124638 MISS:     359311
LLC RFO          ACCESS:     540138 HIT:      78354 MISS:     461784
LLC PREFETCH     ACCESS:     690234 HIT:     104388 MISS:     585846
LLC WRITE        ACCESS:     770791 HIT:     241456 MISS:     529335
LLC TRANSLATION  ACCESS:     294630 HIT:       2773 MISS:     291857
LLC PREFETCH REQUESTED:          0 ISSUED:          0 USEFUL:          0 USELESS:          0
LLC AVERAGE MISS LATENCY: 758.9 cycles
cpu0_DTLB TOTAL        ACCESS:    9250627 HIT:    8034451 MISS:    1216176
cpu0_DTLB LOAD         ACCESS:    9250627 HIT:    8034451 MISS:    1216176
cpu0_DTLB RFO          ACCESS:          0 HIT:          0 MISS:          0
cpu0_DTLB PREFETCH     ACCESS:          0 HIT:          0 MISS:          0
cpu0_DTLB WRITE        ACCESS:          0 HIT:          0 MISS:          0
cpu0_DTLB TRANSLATION  ACCESS:          0 HIT:          0 MISS:          0
cpu0_DTLB PREFETCH REQUESTED:          0 ISSUED:          0 USEFUL:          0 USELESS:          0
cpu0_DTLB AVERAGE MISS LATENCY: 395.2 cycles
cpu0_ITLB TOTAL        ACCESS:         33 HIT:         33 MISS:          0
cpu0_ITLB LOAD         ACCESS:         33 HIT:         33 MISS:          0
cpu0_ITLB RFO          ACCESS:          0 HIT:          0 MISS:          0
cpu0_ITLB PREFETCH     ACCESS:          0 HIT:          0 MISS:          0
cpu0_ITLB WRITE        ACCESS:          0 HIT:          0 MISS:          0
cpu0_ITLB TRANSLATION  ACCESS:          0 HIT:          0 MISS:          0
cpu0_ITLB PREFETCH REQUESTED:          0 ISSUED:          0 USEFUL:          0 USELESS:          0
cpu0_ITLB AVERAGE MISS LATENCY: -nan cycles
cpu0_L1D TOTAL        ACCESS:   19221780 HIT:   15638833 MISS:    3582947
cpu0_L1D LOAD         ACCESS:    8437275 HIT:    7288937 MISS:    1148338
cpu0_L1D RFO          ACCESS:          0 HIT:          0 MISS:          0
cpu0_L1D PREFETCH     ACCESS:    7631490 HIT:    6153789 MISS:    1477701
cpu0_L1D WRITE        ACCESS:    2578812 HIT:    2013458 MISS:     565354
cpu0_L1D TRANSLATION  ACCESS:     574203 HIT:     182649 MISS:     391554
cpu0_L1D PREFETCH REQUESTED:   14196689 ISSUED:    7631491 USEFUL:     134335 USELESS:     782338
cpu0_L1D AVERAGE MISS LATENCY: 471.8 cycles
cpu0_L1I TOTAL        ACCESS:         35 HIT:         35 MISS:          0
cpu0_L1I LOAD         ACCESS:         35 HIT:         35 MISS:          0
cpu0_L1I RFO          ACCESS:          0 HIT:          0 MISS:          0
cpu0_L1I PREFETCH     ACCESS:          0 HIT:          0 MISS:          0
cpu0_L1I WRITE        ACCESS:          0 HIT:          0 MISS:          0
cpu0_L1I TRANSLATION  ACCESS:          0 HIT:          0 MISS:          0
cpu0_L1I PREFETCH REQUESTED:          0 ISSUED:          0 USEFUL:          0 USELESS:          0
cpu0_L1I AVERAGE MISS LATENCY: -nan cycles
cpu0_L2C TOTAL        ACCESS:    3729154 HIT:    1683157 MISS:    2045997
cpu0_L2C LOAD         ACCESS:     905379 HIT:     410871 MISS:     494508
cpu0_L2C RFO          ACCESS:     565111 HIT:      24973 MISS:     540138
cpu0_L2C PREFETCH     ACCESS:    1075110 HIT:     358439 MISS:     716671
cpu0_L2C WRITE        ACCESS:     793308 HIT:     793258 MISS:         50
cpu0_L2C TRANSLATION  ACCESS:     390246 HIT:      95616 MISS:     294630
cpu0_L2C PREFETCH REQUESTED:     158270 ISSUED:     158270 USEFUL:      18197 USELESS:        864
cpu0_L2C AVERAGE MISS LATENCY: 821 cycles
cpu0_STLB TOTAL        ACCESS:     992102 HIT:     479616 MISS:     512486
cpu0_STLB LOAD         ACCESS:     992102 HIT:     479616 MISS:     512486
cpu0_STLB RFO          ACCESS:          0 HIT:          0 MISS:          0
cpu0_STLB PREFETCH     ACCESS:          0 HIT:          0 MISS:          0
cpu0_STLB WRITE        ACCESS:          0 HIT:          0 MISS:          0
cpu0_STLB TRANSLATION  ACCESS:          0 HIT:          0 MISS:          0
cpu0_STLB PREFETCH REQUESTED:          0 ISSUED:          0 USEFUL:          0 USELESS:          0
cpu0_STLB AVERAGE MISS LATENCY: 983.7 cycles

DRAM Statistics

Channel 0 RQ ROW_BUFFER_HIT:      67486
  ROW_BUFFER_MISS:    1553961
 AVG DBUS CONGESTED CYCLE: 3.98
WQ ROW_BUFFER_HIT: Channel 0 
  ROW_BUFFER_MISS:       1759
  FULL:     724127
OPTgen accesses: 11631
OPTgen hits: 4573
OPTgen hit rate: 39.3174


