WARNING: physical memory size is smaller than virtual memory size.

*** ChampSim Multicore Out-of-Order Simulator ***
Warmup Instructions: 25000000
Simulation Instructions: 25000000
Number of CPUs: 1
Page size: 4096

Initialize Hawkeye state
Off-chip DRAM Size: 4 GiB Channels: 1 Width: 64-bit Data Race: 800 MT/s
Heartbeat CPU 0 instructions: 10000001 cycles: 2514195 heartbeat IPC: 3.977 cumulative IPC: 3.977 (Simulation time: 00 hr 00 min 38 sec)
Heartbeat CPU 0 instructions: 20000003 cycles: 5070859 heartbeat IPC: 3.911 cumulative IPC: 3.944 (Simulation time: 00 hr 01 min 19 sec)
Warmup finished CPU 0 instructions: 25000003 cycles: 6387150 cumulative IPC: 3.914 (Simulation time: 00 hr 01 min 41 sec)
Warmup complete CPU 0 instructions: 25000003 cycles: 6387150 cumulative IPC: 3.914 (Simulation time: 00 hr 01 min 41 sec)
Heartbeat CPU 0 instructions: 30000001 cycles: 9254479 heartbeat IPC: 2.39 cumulative IPC: 1.744 (Simulation time: 00 hr 02 min 18 sec)
Heartbeat CPU 0 instructions: 40000003 cycles: 20896655 heartbeat IPC: 0.8589 cumulative IPC: 1.034 (Simulation time: 00 hr 04 min 18 sec)
Heartbeat CPU 0 instructions: 50000000 cycles: 31904183 heartbeat IPC: 0.9085 cumulative IPC: 0.9797 (Simulation time: 00 hr 06 min 15 sec)
Simulation finished CPU 0 instructions: 25000001 cycles: 25517035 cumulative IPC: 0.9797 (Simulation time: 00 hr 06 min 15 sec)
Simulation complete CPU 0 instructions: 25000001 cycles: 25517035 cumulative IPC: 0.9797 (Simulation time: 00 hr 06 min 15 sec)

ChampSim completed all CPUs

=== Simulation ===
CPU 0 runs ./traces/cactusADM_734B.trace.xz
Region of Interest Statistics

CPU 0 cumulative IPC: 0.9797 instructions: 25000001 cycles: 25517035
CPU 0 Branch Prediction Accuracy: 98.22% MPKI: 0.03732 Average ROB Occupancy at Mispredict: 275.5
Branch type MPKI
BRANCH_DIRECT_JUMP: 0
BRANCH_INDIRECT: 0
BRANCH_CONDITIONAL: 0.0373
BRANCH_DIRECT_CALL: 0
BRANCH_INDIRECT_CALL: 0
BRANCH_RETURN: 0

LLC TOTAL        ACCESS:     313806 HIT:      29314 MISS:     284492
LLC LOAD         ACCESS:      34067 HIT:       4081 MISS:      29986
LLC RFO          ACCESS:      67008 HIT:       7768 MISS:      59240
LLC PREFETCH     ACCESS:     134874 HIT:      10226 MISS:     124648
LLC WRITE        ACCESS:      66123 HIT:       7206 MISS:      58917
LLC TRANSLATION  ACCESS:      11734 HIT:         33 MISS:      11701
LLC PREFETCH REQUESTED:          0 ISSUED:          0 USEFUL:          0 USELESS:          0
LLC AVERAGE MISS LATENCY: 899 cycles
cpu0_DTLB TOTAL        ACCESS:    5755025 HIT:    5238970 MISS:     516055
cpu0_DTLB LOAD         ACCESS:    5755025 HIT:    5238970 MISS:     516055
cpu0_DTLB RFO          ACCESS:          0 HIT:          0 MISS:          0
cpu0_DTLB PREFETCH     ACCESS:          0 HIT:          0 MISS:          0
cpu0_DTLB WRITE        ACCESS:          0 HIT:          0 MISS:          0
cpu0_DTLB TRANSLATION  ACCESS:          0 HIT:          0 MISS:          0
cpu0_DTLB PREFETCH REQUESTED:          0 ISSUED:          0 USEFUL:          0 USELESS:          0
cpu0_DTLB AVERAGE MISS LATENCY: 39.74 cycles
cpu0_ITLB TOTAL        ACCESS:    3538678 HIT:    3538678 MISS:          0
cpu0_ITLB LOAD         ACCESS:    3538678 HIT:    3538678 MISS:          0
cpu0_ITLB RFO          ACCESS:          0 HIT:          0 MISS:          0
cpu0_ITLB PREFETCH     ACCESS:          0 HIT:          0 MISS:          0
cpu0_ITLB WRITE        ACCESS:          0 HIT:          0 MISS:          0
cpu0_ITLB TRANSLATION  ACCESS:          0 HIT:          0 MISS:          0
cpu0_ITLB PREFETCH REQUESTED:          0 ISSUED:          0 USEFUL:          0 USELESS:          0
cpu0_ITLB AVERAGE MISS LATENCY: -nan cycles
cpu0_L1D TOTAL        ACCESS:   10005392 HIT:    9184177 MISS:     821215
cpu0_L1D LOAD         ACCESS:    5856030 HIT:    5626257 MISS:     229773
cpu0_L1D RFO          ACCESS:          0 HIT:          0 MISS:          0
cpu0_L1D PREFETCH     ACCESS:     987508 HIT:     836978 MISS:     150530
cpu0_L1D WRITE        ACCESS:    2915929 HIT:    2605726 MISS:     310203
cpu0_L1D TRANSLATION  ACCESS:     245925 HIT:     115216 MISS:     130709
cpu0_L1D PREFETCH REQUESTED:    6477791 ISSUED:     987516 USEFUL:     103289 USELESS:       4249
cpu0_L1D AVERAGE MISS LATENCY: 210.4 cycles
cpu0_L1I TOTAL        ACCESS:    4643234 HIT:    4643234 MISS:          0
cpu0_L1I LOAD         ACCESS:    4643234 HIT:    4643234 MISS:          0
cpu0_L1I RFO          ACCESS:          0 HIT:          0 MISS:          0
cpu0_L1I PREFETCH     ACCESS:          0 HIT:          0 MISS:          0
cpu0_L1I WRITE        ACCESS:          0 HIT:          0 MISS:          0
cpu0_L1I TRANSLATION  ACCESS:          0 HIT:          0 MISS:          0
cpu0_L1I PREFETCH REQUESTED:          0 ISSUED:          0 USEFUL:          0 USELESS:          0
cpu0_L1I AVERAGE MISS LATENCY: -nan cycles
cpu0_L2C TOTAL        ACCESS:     839878 HIT:     588856 MISS:     251022
cpu0_L2C LOAD         ACCESS:     188197 HIT:     153460 MISS:      34737
cpu0_L2C RFO          ACCESS:      67978 HIT:        970 MISS:      67008
cpu0_L2C PREFETCH     ACCESS:     383070 HIT:     245640 MISS:     137430
cpu0_L2C WRITE        ACCESS:      70039 HIT:      69926 MISS:        113
cpu0_L2C TRANSLATION  ACCESS:     130594 HIT:     118860 MISS:      11734
cpu0_L2C PREFETCH REQUESTED:     275760 ISSUED:     275537 USEFUL:      64663 USELESS:        355
cpu0_L2C AVERAGE MISS LATENCY: 999 cycles
cpu0_STLB TOTAL        ACCESS:     391271 HIT:     258338 MISS:     132933
cpu0_STLB LOAD         ACCESS:     391271 HIT:     258338 MISS:     132933
cpu0_STLB RFO          ACCESS:          0 HIT:          0 MISS:          0
cpu0_STLB PREFETCH     ACCESS:          0 HIT:          0 MISS:          0
cpu0_STLB WRITE        ACCESS:          0 HIT:          0 MISS:          0
cpu0_STLB TRANSLATION  ACCESS:          0 HIT:          0 MISS:          0
cpu0_STLB PREFETCH REQUESTED:          0 ISSUED:          0 USEFUL:          0 USELESS:          0
cpu0_STLB AVERAGE MISS LATENCY: 177 cycles

DRAM Statistics

Channel 0 RQ ROW_BUFFER_HIT:      30622
  ROW_BUFFER_MISS:     192312
 AVG DBUS CONGESTED CYCLE: 3.941
WQ ROW_BUFFER_HIT: Channel 0 
  ROW_BUFFER_MISS:       2743
  FULL:      73288
OPTgen accesses: 956
OPTgen hits: 316
OPTgen hit rate: 33.0544


