WARNING: physical memory size is smaller than virtual memory size.

*** ChampSim Multicore Out-of-Order Simulator ***
Warmup Instructions: 25000000
Simulation Instructions: 25000000
Number of CPUs: 1
Page size: 4096

Initialize Hawkeye state
Off-chip DRAM Size: 4 GiB Channels: 1 Width: 64-bit Data Race: 800 MT/s
Heartbeat CPU 0 instructions: 10000000 cycles: 2764661 heartbeat IPC: 3.617 cumulative IPC: 3.617 (Simulation time: 00 hr 00 min 36 sec)
Heartbeat CPU 0 instructions: 20000000 cycles: 5345667 heartbeat IPC: 3.874 cumulative IPC: 3.741 (Simulation time: 00 hr 01 min 16 sec)
Warmup finished CPU 0 instructions: 25000003 cycles: 6778811 cumulative IPC: 3.688 (Simulation time: 00 hr 01 min 36 sec)
Warmup complete CPU 0 instructions: 25000003 cycles: 6778811 cumulative IPC: 3.688 (Simulation time: 00 hr 01 min 36 sec)
Heartbeat CPU 0 instructions: 30000003 cycles: 28356056 heartbeat IPC: 0.4346 cumulative IPC: 0.2317 (Simulation time: 00 hr 03 min 57 sec)
Heartbeat CPU 0 instructions: 40000002 cycles: 62803335 heartbeat IPC: 0.2903 cumulative IPC: 0.2677 (Simulation time: 00 hr 08 min 08 sec)
Heartbeat CPU 0 instructions: 50000000 cycles: 75612757 heartbeat IPC: 0.7807 cumulative IPC: 0.3632 (Simulation time: 00 hr 09 min 44 sec)
Simulation finished CPU 0 instructions: 25000000 cycles: 68833959 cumulative IPC: 0.3632 (Simulation time: 00 hr 09 min 44 sec)
Simulation complete CPU 0 instructions: 25000000 cycles: 68833959 cumulative IPC: 0.3632 (Simulation time: 00 hr 09 min 44 sec)

ChampSim completed all CPUs

=== Simulation ===
CPU 0 runs ./traces/gcc_13B.trace.xz
Region of Interest Statistics

CPU 0 cumulative IPC: 0.3632 instructions: 25000000 cycles: 68833959
CPU 0 Branch Prediction Accuracy: 87.06% MPKI: 28.41 Average ROB Occupancy at Mispredict: 24.22
Branch type MPKI
BRANCH_DIRECT_JUMP: 0.00096
BRANCH_INDIRECT: 0
BRANCH_CONDITIONAL: 27.4
BRANCH_DIRECT_CALL: 0.00084
BRANCH_INDIRECT_CALL: 0.002
BRANCH_RETURN: 1

LLC TOTAL        ACCESS:     911858 HIT:     127835 MISS:     784023
LLC LOAD         ACCESS:     276167 HIT:      38572 MISS:     237595
LLC RFO          ACCESS:      77142 HIT:      11255 MISS:      65887
LLC PREFETCH     ACCESS:     345868 HIT:      24824 MISS:     321044
LLC WRITE        ACCESS:     205351 HIT:      53037 MISS:     152314
LLC TRANSLATION  ACCESS:       7330 HIT:        147 MISS:       7183
LLC PREFETCH REQUESTED:          0 ISSUED:          0 USEFUL:          0 USELESS:          0
LLC AVERAGE MISS LATENCY: 679.5 cycles
cpu0_DTLB TOTAL        ACCESS:    6714029 HIT:    6633931 MISS:      80098
cpu0_DTLB LOAD         ACCESS:    6714029 HIT:    6633931 MISS:      80098
cpu0_DTLB RFO          ACCESS:          0 HIT:          0 MISS:          0
cpu0_DTLB PREFETCH     ACCESS:          0 HIT:          0 MISS:          0
cpu0_DTLB WRITE        ACCESS:          0 HIT:          0 MISS:          0
cpu0_DTLB TRANSLATION  ACCESS:          0 HIT:          0 MISS:          0
cpu0_DTLB PREFETCH REQUESTED:          0 ISSUED:          0 USEFUL:          0 USELESS:          0
cpu0_DTLB AVERAGE MISS LATENCY: 109.3 cycles
cpu0_ITLB TOTAL        ACCESS:        427 HIT:        412 MISS:         15
cpu0_ITLB LOAD         ACCESS:        427 HIT:        412 MISS:         15
cpu0_ITLB RFO          ACCESS:          0 HIT:          0 MISS:          0
cpu0_ITLB PREFETCH     ACCESS:          0 HIT:          0 MISS:          0
cpu0_ITLB WRITE        ACCESS:          0 HIT:          0 MISS:          0
cpu0_ITLB TRANSLATION  ACCESS:          0 HIT:          0 MISS:          0
cpu0_ITLB PREFETCH REQUESTED:          0 ISSUED:          0 USEFUL:          0 USELESS:          0
cpu0_ITLB AVERAGE MISS LATENCY: 630.7 cycles
cpu0_L1D TOTAL        ACCESS:   13048031 HIT:   10641781 MISS:    2406250
cpu0_L1D LOAD         ACCESS:    5254729 HIT:    4079128 MISS:    1175601
cpu0_L1D RFO          ACCESS:          0 HIT:          0 MISS:          0
cpu0_L1D PREFETCH     ACCESS:    4180652 HIT:    3434176 MISS:     746476
cpu0_L1D WRITE        ACCESS:    3590744 HIT:    3121758 MISS:     468986
cpu0_L1D TRANSLATION  ACCESS:      21906 HIT:       6719 MISS:      15187
cpu0_L1D PREFETCH REQUESTED:   13670544 ISSUED:    4180651 USEFUL:     115445 USELESS:     122019
cpu0_L1D AVERAGE MISS LATENCY: 171.4 cycles
cpu0_L1I TOTAL        ACCESS:        494 HIT:        424 MISS:         70
cpu0_L1I LOAD         ACCESS:        494 HIT:        424 MISS:         70
cpu0_L1I RFO          ACCESS:          0 HIT:          0 MISS:          0
cpu0_L1I PREFETCH     ACCESS:          0 HIT:          0 MISS:          0
cpu0_L1I WRITE        ACCESS:          0 HIT:          0 MISS:          0
cpu0_L1I TRANSLATION  ACCESS:          0 HIT:          0 MISS:          0
cpu0_L1I PREFETCH REQUESTED:          0 ISSUED:          0 USEFUL:          0 USELESS:          0
cpu0_L1I AVERAGE MISS LATENCY: 300.9 cycles
cpu0_L2C TOTAL        ACCESS:    1092402 HIT:     298039 MISS:     794363
cpu0_L2C LOAD         ACCESS:     339184 HIT:      40445 MISS:     298739
cpu0_L2C RFO          ACCESS:      82510 HIT:       3858 MISS:      78652
cpu0_L2C PREFETCH     ACCESS:     449144 HIT:      39528 MISS:     409616
cpu0_L2C WRITE        ACCESS:     206405 HIT:     206379 MISS:         26
cpu0_L2C TRANSLATION  ACCESS:      15159 HIT:       7829 MISS:       7330
cpu0_L2C PREFETCH REQUESTED:     211670 ISSUED:     211670 USEFUL:      68277 USELESS:      25555
cpu0_L2C AVERAGE MISS LATENCY: 616 cycles
cpu0_STLB TOTAL        ACCESS:      30392 HIT:       8594 MISS:      21798
cpu0_STLB LOAD         ACCESS:      30392 HIT:       8594 MISS:      21798
cpu0_STLB RFO          ACCESS:          0 HIT:          0 MISS:          0
cpu0_STLB PREFETCH     ACCESS:          0 HIT:          0 MISS:          0
cpu0_STLB WRITE        ACCESS:          0 HIT:          0 MISS:          0
cpu0_STLB TRANSLATION  ACCESS:          0 HIT:          0 MISS:          0
cpu0_STLB PREFETCH REQUESTED:          0 ISSUED:          0 USEFUL:          0 USELESS:          0
cpu0_STLB AVERAGE MISS LATENCY: 524 cycles

DRAM Statistics

Channel 0 RQ ROW_BUFFER_HIT:     231827
  ROW_BUFFER_MISS:     378129
 AVG DBUS CONGESTED CYCLE: 3.899
WQ ROW_BUFFER_HIT: Channel 0 
  ROW_BUFFER_MISS:      26334
  FULL:     187411
OPTgen accesses: 4297
OPTgen hits: 1089
OPTgen hit rate: 25.3433


