WARNING: physical memory size is smaller than virtual memory size.

*** ChampSim Multicore Out-of-Order Simulator ***
Warmup Instructions: 25000000
Simulation Instructions: 25000000
Number of CPUs: 1
Page size: 4096

Initialize Hawkeye state
Off-chip DRAM Size: 4 GiB Channels: 1 Width: 64-bit Data Race: 800 MT/s
Heartbeat CPU 0 instructions: 10000000 cycles: 2500632 heartbeat IPC: 3.999 cumulative IPC: 3.999 (Simulation time: 00 hr 00 min 34 sec)
Heartbeat CPU 0 instructions: 20000000 cycles: 5000632 heartbeat IPC: 4 cumulative IPC: 3.999 (Simulation time: 00 hr 01 min 12 sec)
Warmup finished CPU 0 instructions: 25000002 cycles: 6251047 cumulative IPC: 3.999 (Simulation time: 00 hr 01 min 30 sec)
Warmup complete CPU 0 instructions: 25000002 cycles: 6251047 cumulative IPC: 3.999 (Simulation time: 00 hr 01 min 30 sec)
Heartbeat CPU 0 instructions: 30000003 cycles: 7935201 heartbeat IPC: 3.408 cumulative IPC: 2.969 (Simulation time: 00 hr 01 min 57 sec)
Heartbeat CPU 0 instructions: 40000001 cycles: 12515633 heartbeat IPC: 2.183 cumulative IPC: 2.394 (Simulation time: 00 hr 02 min 59 sec)
Heartbeat CPU 0 instructions: 50000002 cycles: 17957050 heartbeat IPC: 1.838 cumulative IPC: 2.136 (Simulation time: 00 hr 04 min 10 sec)
Simulation finished CPU 0 instructions: 25000000 cycles: 11706004 cumulative IPC: 2.136 (Simulation time: 00 hr 04 min 10 sec)
Simulation complete CPU 0 instructions: 25000000 cycles: 11706004 cumulative IPC: 2.136 (Simulation time: 00 hr 04 min 10 sec)

ChampSim completed all CPUs

=== Simulation ===
CPU 0 runs ./traces/hmmer_7B.trace.xz
Region of Interest Statistics

CPU 0 cumulative IPC: 2.136 instructions: 25000000 cycles: 11706004
CPU 0 Branch Prediction Accuracy: 99.03% MPKI: 0.3745 Average ROB Occupancy at Mispredict: 209.9
Branch type MPKI
BRANCH_DIRECT_JUMP: 0.00052
BRANCH_INDIRECT: 0.00224
BRANCH_CONDITIONAL: 0.37
BRANCH_DIRECT_CALL: 0.00036
BRANCH_INDIRECT_CALL: 8e-05
BRANCH_RETURN: 0.00108

LLC TOTAL        ACCESS:     153487 HIT:      89177 MISS:      64310
LLC LOAD         ACCESS:       2195 HIT:       1349 MISS:        846
LLC RFO          ACCESS:      71911 HIT:      30370 MISS:      41541
LLC PREFETCH     ACCESS:       7355 HIT:       5843 MISS:       1512
LLC WRITE        ACCESS:      72014 HIT:      51613 MISS:      20401
LLC TRANSLATION  ACCESS:         12 HIT:          2 MISS:         10
LLC PREFETCH REQUESTED:          0 ISSUED:          0 USEFUL:          0 USELESS:          0
LLC AVERAGE MISS LATENCY: 1772 cycles
cpu0_DTLB TOTAL        ACCESS:    5769665 HIT:    5763437 MISS:       6228
cpu0_DTLB LOAD         ACCESS:    5769665 HIT:    5763437 MISS:       6228
cpu0_DTLB RFO          ACCESS:          0 HIT:          0 MISS:          0
cpu0_DTLB PREFETCH     ACCESS:          0 HIT:          0 MISS:          0
cpu0_DTLB WRITE        ACCESS:          0 HIT:          0 MISS:          0
cpu0_DTLB TRANSLATION  ACCESS:          0 HIT:          0 MISS:          0
cpu0_DTLB PREFETCH REQUESTED:          0 ISSUED:          0 USEFUL:          0 USELESS:          0
cpu0_DTLB AVERAGE MISS LATENCY: 4.876 cycles
cpu0_ITLB TOTAL        ACCESS:       3191 HIT:       3107 MISS:         84
cpu0_ITLB LOAD         ACCESS:       3191 HIT:       3107 MISS:         84
cpu0_ITLB RFO          ACCESS:          0 HIT:          0 MISS:          0
cpu0_ITLB PREFETCH     ACCESS:          0 HIT:          0 MISS:          0
cpu0_ITLB WRITE        ACCESS:          0 HIT:          0 MISS:          0
cpu0_ITLB TRANSLATION  ACCESS:          0 HIT:          0 MISS:          0
cpu0_ITLB PREFETCH REQUESTED:          0 ISSUED:          0 USEFUL:          0 USELESS:          0
cpu0_ITLB AVERAGE MISS LATENCY: 19.99 cycles
cpu0_L1D TOTAL        ACCESS:    8440519 HIT:    6337244 MISS:    2103275
cpu0_L1D LOAD         ACCESS:    4480036 HIT:    4402539 MISS:      77497
cpu0_L1D RFO          ACCESS:          0 HIT:          0 MISS:          0
cpu0_L1D PREFETCH     ACCESS:     312889 HIT:     285180 MISS:      27709
cpu0_L1D WRITE        ACCESS:    3647575 HIT:    1649524 MISS:    1998051
cpu0_L1D TRANSLATION  ACCESS:         19 HIT:          1 MISS:         18
cpu0_L1D PREFETCH REQUESTED:    5744954 ISSUED:     312885 USEFUL:       5883 USELESS:       2991
cpu0_L1D AVERAGE MISS LATENCY: 44.66 cycles
cpu0_L1I TOTAL        ACCESS:       3569 HIT:       3423 MISS:        146
cpu0_L1I LOAD         ACCESS:       3569 HIT:       3423 MISS:        146
cpu0_L1I RFO          ACCESS:          0 HIT:          0 MISS:          0
cpu0_L1I PREFETCH     ACCESS:          0 HIT:          0 MISS:          0
cpu0_L1I WRITE        ACCESS:          0 HIT:          0 MISS:          0
cpu0_L1I TRANSLATION  ACCESS:          0 HIT:          0 MISS:          0
cpu0_L1I PREFETCH REQUESTED:          0 ISSUED:          0 USEFUL:          0 USELESS:          0
cpu0_L1I AVERAGE MISS LATENCY: 339.9 cycles
cpu0_L2C TOTAL        ACCESS:     338597 HIT:     256710 MISS:      81887
cpu0_L2C LOAD         ACCESS:      60273 HIT:      57977 MISS:       2296
cpu0_L2C RFO          ACCESS:      75580 HIT:       3669 MISS:      71911
cpu0_L2C PREFETCH     ACCESS:     127041 HIT:     119386 MISS:       7655
cpu0_L2C WRITE        ACCESS:      75685 HIT:      75672 MISS:         13
cpu0_L2C TRANSLATION  ACCESS:         18 HIT:          6 MISS:         12
cpu0_L2C PREFETCH REQUESTED:     118168 ISSUED:     118168 USEFUL:       4071 USELESS:        231
cpu0_L2C AVERAGE MISS LATENCY: 1410 cycles
cpu0_STLB TOTAL        ACCESS:       3584 HIT:       3565 MISS:         19
cpu0_STLB LOAD         ACCESS:       3584 HIT:       3565 MISS:         19
cpu0_STLB RFO          ACCESS:          0 HIT:          0 MISS:          0
cpu0_STLB PREFETCH     ACCESS:          0 HIT:          0 MISS:          0
cpu0_STLB WRITE        ACCESS:          0 HIT:          0 MISS:          0
cpu0_STLB TRANSLATION  ACCESS:          0 HIT:          0 MISS:          0
cpu0_STLB PREFETCH REQUESTED:          0 ISSUED:          0 USEFUL:          0 USELESS:          0
cpu0_STLB AVERAGE MISS LATENCY: 887.1 cycles

DRAM Statistics

Channel 0 RQ ROW_BUFFER_HIT:      18387
  ROW_BUFFER_MISS:      25490
 AVG DBUS CONGESTED CYCLE: 3.952
WQ ROW_BUFFER_HIT: Channel 0 
  ROW_BUFFER_MISS:       6870
  FULL:      34853
OPTgen accesses: 604
OPTgen hits: 256
OPTgen hit rate: 42.3842


