WARNING: physical memory size is smaller than virtual memory size.

*** ChampSim Multicore Out-of-Order Simulator ***
Warmup Instructions: 25000000
Simulation Instructions: 25000000
Number of CPUs: 1
Page size: 4096

Initialize Hawkeye state
Off-chip DRAM Size: 4 GiB Channels: 1 Width: 64-bit Data Race: 800 MT/s
Heartbeat CPU 0 instructions: 10000001 cycles: 2609891 heartbeat IPC: 3.832 cumulative IPC: 3.832 (Simulation time: 00 hr 00 min 33 sec)
Heartbeat CPU 0 instructions: 20000000 cycles: 5188011 heartbeat IPC: 3.879 cumulative IPC: 3.855 (Simulation time: 00 hr 01 min 08 sec)
Warmup finished CPU 0 instructions: 25000000 cycles: 6484358 cumulative IPC: 3.855 (Simulation time: 00 hr 01 min 27 sec)
Warmup complete CPU 0 instructions: 25000000 cycles: 6484358 cumulative IPC: 3.855 (Simulation time: 00 hr 01 min 27 sec)
Heartbeat CPU 0 instructions: 30000001 cycles: 34059986 heartbeat IPC: 0.3464 cumulative IPC: 0.1813 (Simulation time: 00 hr 04 min 53 sec)
Heartbeat CPU 0 instructions: 40000003 cycles: 90313101 heartbeat IPC: 0.1778 cumulative IPC: 0.1789 (Simulation time: 00 hr 12 min 10 sec)
Heartbeat CPU 0 instructions: 50000003 cycles: 145281571 heartbeat IPC: 0.1819 cumulative IPC: 0.1801 (Simulation time: 00 hr 19 min 10 sec)
Simulation finished CPU 0 instructions: 25000003 cycles: 138797214 cumulative IPC: 0.1801 (Simulation time: 00 hr 19 min 10 sec)
Simulation complete CPU 0 instructions: 25000003 cycles: 138797214 cumulative IPC: 0.1801 (Simulation time: 00 hr 19 min 10 sec)

ChampSim completed all CPUs

=== Simulation ===
CPU 0 runs ./traces/lbm_94B.trace.xz
Region of Interest Statistics

CPU 0 cumulative IPC: 0.1801 instructions: 25000003 cycles: 138797214
CPU 0 Branch Prediction Accuracy: 98.94% MPKI: 0.1259 Average ROB Occupancy at Mispredict: 266.9
Branch type MPKI
BRANCH_DIRECT_JUMP: 0
BRANCH_INDIRECT: 0
BRANCH_CONDITIONAL: 0.126
BRANCH_DIRECT_CALL: 0
BRANCH_INDIRECT_CALL: 0
BRANCH_RETURN: 0

LLC TOTAL        ACCESS:    1434666 HIT:      32505 MISS:    1402161
LLC LOAD         ACCESS:      96515 HIT:       1990 MISS:      94525
LLC RFO          ACCESS:     614661 HIT:      28837 MISS:     585824
LLC PREFETCH     ACCESS:     106274 HIT:       1495 MISS:     104779
LLC WRITE        ACCESS:     616353 HIT:        183 MISS:     616170
LLC TRANSLATION  ACCESS:        863 HIT:          0 MISS:        863
LLC PREFETCH REQUESTED:          0 ISSUED:          0 USEFUL:          0 USELESS:          0
LLC AVERAGE MISS LATENCY: 1295 cycles
cpu0_DTLB TOTAL        ACCESS:    4093771 HIT:    4071703 MISS:      22068
cpu0_DTLB LOAD         ACCESS:    4093771 HIT:    4071703 MISS:      22068
cpu0_DTLB RFO          ACCESS:          0 HIT:          0 MISS:          0
cpu0_DTLB PREFETCH     ACCESS:          0 HIT:          0 MISS:          0
cpu0_DTLB WRITE        ACCESS:          0 HIT:          0 MISS:          0
cpu0_DTLB TRANSLATION  ACCESS:          0 HIT:          0 MISS:          0
cpu0_DTLB PREFETCH REQUESTED:          0 ISSUED:          0 USEFUL:          0 USELESS:          0
cpu0_DTLB AVERAGE MISS LATENCY: 276.2 cycles
cpu0_ITLB TOTAL        ACCESS:          0 HIT:          0 MISS:          0
cpu0_ITLB LOAD         ACCESS:          0 HIT:          0 MISS:          0
cpu0_ITLB RFO          ACCESS:          0 HIT:          0 MISS:          0
cpu0_ITLB PREFETCH     ACCESS:          0 HIT:          0 MISS:          0
cpu0_ITLB WRITE        ACCESS:          0 HIT:          0 MISS:          0
cpu0_ITLB TRANSLATION  ACCESS:          0 HIT:          0 MISS:          0
cpu0_ITLB PREFETCH REQUESTED:          0 ISSUED:          0 USEFUL:          0 USELESS:          0
cpu0_ITLB AVERAGE MISS LATENCY: -nan cycles
cpu0_L1D TOTAL        ACCESS:    7201750 HIT:    4146326 MISS:    3055424
cpu0_L1D LOAD         ACCESS:    2181261 HIT:    1491794 MISS:     689467
cpu0_L1D RFO          ACCESS:          0 HIT:          0 MISS:          0
cpu0_L1D PREFETCH     ACCESS:    2397490 HIT:    1162912 MISS:    1234578
cpu0_L1D WRITE        ACCESS:    2610758 HIT:    1490595 MISS:    1120163
cpu0_L1D TRANSLATION  ACCESS:      12241 HIT:       1025 MISS:      11216
cpu0_L1D PREFETCH REQUESTED:    9640708 ISSUED:    2397495 USEFUL:      73301 USELESS:       1867
cpu0_L1D AVERAGE MISS LATENCY: 523.1 cycles
cpu0_L1I TOTAL        ACCESS:          0 HIT:          0 MISS:          0
cpu0_L1I LOAD         ACCESS:          0 HIT:          0 MISS:          0
cpu0_L1I RFO          ACCESS:          0 HIT:          0 MISS:          0
cpu0_L1I PREFETCH     ACCESS:          0 HIT:          0 MISS:          0
cpu0_L1I WRITE        ACCESS:          0 HIT:          0 MISS:          0
cpu0_L1I TRANSLATION  ACCESS:          0 HIT:          0 MISS:          0
cpu0_L1I PREFETCH REQUESTED:          0 ISSUED:          0 USEFUL:          0 USELESS:          0
cpu0_L1I AVERAGE MISS LATENCY: -nan cycles
cpu0_L2C TOTAL        ACCESS:    2482928 HIT:    1663734 MISS:     819194
cpu0_L2C LOAD         ACCESS:     122352 HIT:      25697 MISS:      96655
cpu0_L2C RFO          ACCESS:    1101939 HIT:     487277 MISS:     614662
cpu0_L2C PREFETCH     ACCESS:     145473 HIT:      38459 MISS:     107014
cpu0_L2C WRITE        ACCESS:    1101948 HIT:    1101948 MISS:          0
cpu0_L2C TRANSLATION  ACCESS:      11216 HIT:      10353 MISS:        863
cpu0_L2C PREFETCH REQUESTED:      70305 ISSUED:      70305 USEFUL:      26064 USELESS:         36
cpu0_L2C AVERAGE MISS LATENCY: 2226 cycles
cpu0_STLB TOTAL        ACCESS:      12229 HIT:          0 MISS:      12229
cpu0_STLB LOAD         ACCESS:      12229 HIT:          0 MISS:      12229
cpu0_STLB RFO          ACCESS:          0 HIT:          0 MISS:          0
cpu0_STLB PREFETCH     ACCESS:          0 HIT:          0 MISS:          0
cpu0_STLB WRITE        ACCESS:          0 HIT:          0 MISS:          0
cpu0_STLB TRANSLATION  ACCESS:          0 HIT:          0 MISS:          0
cpu0_STLB PREFETCH REQUESTED:          0 ISSUED:          0 USEFUL:          0 USELESS:          0
cpu0_STLB AVERAGE MISS LATENCY: 601.1 cycles

DRAM Statistics

Channel 0 RQ ROW_BUFFER_HIT:      52390
  ROW_BUFFER_MISS:     730535
 AVG DBUS CONGESTED CYCLE: 3.996
WQ ROW_BUFFER_HIT: Channel 0 
  ROW_BUFFER_MISS:      47179
  FULL:     569022
OPTgen accesses: 5608
OPTgen hits: 1217
OPTgen hit rate: 21.7012


