WARNING: physical memory size is smaller than virtual memory size.

*** ChampSim Multicore Out-of-Order Simulator ***
Warmup Instructions: 25000000
Simulation Instructions: 25000000
Number of CPUs: 1
Page size: 4096

Initialize Hawkeye state
Off-chip DRAM Size: 4 GiB Channels: 1 Width: 64-bit Data Race: 800 MT/s
Heartbeat CPU 0 instructions: 10000001 cycles: 2500074 heartbeat IPC: 4 cumulative IPC: 4 (Simulation time: 00 hr 00 min 30 sec)
Heartbeat CPU 0 instructions: 20000001 cycles: 5000074 heartbeat IPC: 4 cumulative IPC: 4 (Simulation time: 00 hr 01 min 02 sec)
Warmup finished CPU 0 instructions: 25000001 cycles: 6250075 cumulative IPC: 4 (Simulation time: 00 hr 01 min 19 sec)
Warmup complete CPU 0 instructions: 25000001 cycles: 6250075 cumulative IPC: 4 (Simulation time: 00 hr 01 min 19 sec)
Heartbeat CPU 0 instructions: 30000002 cycles: 33454853 heartbeat IPC: 0.3514 cumulative IPC: 0.1838 (Simulation time: 00 hr 05 min 12 sec)
Heartbeat CPU 0 instructions: 40000000 cycles: 68819945 heartbeat IPC: 0.2828 cumulative IPC: 0.2397 (Simulation time: 00 hr 10 min 24 sec)
Heartbeat CPU 0 instructions: 50000003 cycles: 78994008 heartbeat IPC: 0.9829 cumulative IPC: 0.3437 (Simulation time: 00 hr 12 min 01 sec)
Simulation finished CPU 0 instructions: 25000002 cycles: 72743934 cumulative IPC: 0.3437 (Simulation time: 00 hr 12 min 01 sec)
Simulation complete CPU 0 instructions: 25000002 cycles: 72743934 cumulative IPC: 0.3437 (Simulation time: 00 hr 12 min 01 sec)

ChampSim completed all CPUs

=== Simulation ===
CPU 0 runs ./traces/libquantum_964B.trace.xz
Region of Interest Statistics

CPU 0 cumulative IPC: 0.3437 instructions: 25000002 cycles: 72743934
CPU 0 Branch Prediction Accuracy: 99.98% MPKI: 0.05316 Average ROB Occupancy at Mispredict: 84.38
Branch type MPKI
BRANCH_DIRECT_JUMP: 4e-05
BRANCH_INDIRECT: 0
BRANCH_CONDITIONAL: 0.0527
BRANCH_DIRECT_CALL: 0.0002
BRANCH_INDIRECT_CALL: 0
BRANCH_RETURN: 0.0002

LLC TOTAL        ACCESS:    1758825 HIT:     111656 MISS:    1647169
LLC LOAD         ACCESS:     197685 HIT:      18111 MISS:     179574
LLC RFO          ACCESS:          8 HIT:          6 MISS:          2
LLC PREFETCH     ACCESS:    1034896 HIT:      62846 MISS:     972050
LLC WRITE        ACCESS:     526199 HIT:      30690 MISS:     495509
LLC TRANSLATION  ACCESS:         37 HIT:          3 MISS:         34
LLC PREFETCH REQUESTED:          0 ISSUED:          0 USEFUL:          0 USELESS:          0
LLC AVERAGE MISS LATENCY: 542.2 cycles
cpu0_DTLB TOTAL        ACCESS:    4240329 HIT:    4174682 MISS:      65647
cpu0_DTLB LOAD         ACCESS:    4240329 HIT:    4174682 MISS:      65647
cpu0_DTLB RFO          ACCESS:          0 HIT:          0 MISS:          0
cpu0_DTLB PREFETCH     ACCESS:          0 HIT:          0 MISS:          0
cpu0_DTLB WRITE        ACCESS:          0 HIT:          0 MISS:          0
cpu0_DTLB TRANSLATION  ACCESS:          0 HIT:          0 MISS:          0
cpu0_DTLB PREFETCH REQUESTED:          0 ISSUED:          0 USEFUL:          0 USELESS:          0
cpu0_DTLB AVERAGE MISS LATENCY: 2.547 cycles
cpu0_ITLB TOTAL        ACCESS:          8 HIT:          7 MISS:          1
cpu0_ITLB LOAD         ACCESS:          8 HIT:          7 MISS:          1
cpu0_ITLB RFO          ACCESS:          0 HIT:          0 MISS:          0
cpu0_ITLB PREFETCH     ACCESS:          0 HIT:          0 MISS:          0
cpu0_ITLB WRITE        ACCESS:          0 HIT:          0 MISS:          0
cpu0_ITLB TRANSLATION  ACCESS:          0 HIT:          0 MISS:          0
cpu0_ITLB PREFETCH REQUESTED:          0 ISSUED:          0 USEFUL:          0 USELESS:          0
cpu0_ITLB AVERAGE MISS LATENCY: 457 cycles
cpu0_L1D TOTAL        ACCESS:    8191685 HIT:    2336994 MISS:    5854691
cpu0_L1D LOAD         ACCESS:    3447867 HIT:     114475 MISS:    3333392
cpu0_L1D RFO          ACCESS:          0 HIT:          0 MISS:          0
cpu0_L1D PREFETCH     ACCESS:    2630806 HIT:     109575 MISS:    2521231
cpu0_L1D WRITE        ACCESS:    2098512 HIT:    2098481 MISS:         31
cpu0_L1D TRANSLATION  ACCESS:      14500 HIT:      14463 MISS:         37
cpu0_L1D PREFETCH REQUESTED:   18185795 ISSUED:    2630806 USEFUL:     501773 USELESS:         32
cpu0_L1D AVERAGE MISS LATENCY: 127.6 cycles
cpu0_L1I TOTAL        ACCESS:          8 HIT:          5 MISS:          3
cpu0_L1I LOAD         ACCESS:          8 HIT:          5 MISS:          3
cpu0_L1I RFO          ACCESS:          0 HIT:          0 MISS:          0
cpu0_L1I PREFETCH     ACCESS:          0 HIT:          0 MISS:          0
cpu0_L1I WRITE        ACCESS:          0 HIT:          0 MISS:          0
cpu0_L1I TRANSLATION  ACCESS:          0 HIT:          0 MISS:          0
cpu0_L1I PREFETCH REQUESTED:          0 ISSUED:          0 USEFUL:          0 USELESS:          0
cpu0_L1I AVERAGE MISS LATENCY: 257.3 cycles
cpu0_L2C TOTAL        ACCESS:    3720213 HIT:     537443 MISS:    3182770
cpu0_L2C LOAD         ACCESS:     425629 HIT:       2148 MISS:     423481
cpu0_L2C RFO          ACCESS:          8 HIT:          0 MISS:          8
cpu0_L2C PREFETCH     ACCESS:    2768868 HIT:       9624 MISS:    2759244
cpu0_L2C WRITE        ACCESS:     525671 HIT:     525671 MISS:          0
cpu0_L2C TRANSLATION  ACCESS:         37 HIT:          0 MISS:         37
cpu0_L2C PREFETCH REQUESTED:    2268423 ISSUED:    2267064 USEFUL:     259305 USELESS:     387728
cpu0_L2C AVERAGE MISS LATENCY: 262.5 cycles
cpu0_STLB TOTAL        ACCESS:      14500 HIT:          0 MISS:      14500
cpu0_STLB LOAD         ACCESS:      14500 HIT:          0 MISS:      14500
cpu0_STLB RFO          ACCESS:          0 HIT:          0 MISS:          0
cpu0_STLB PREFETCH     ACCESS:          0 HIT:          0 MISS:          0
cpu0_STLB WRITE        ACCESS:          0 HIT:          0 MISS:          0
cpu0_STLB TRANSLATION  ACCESS:          0 HIT:          0 MISS:          0
cpu0_STLB PREFETCH REQUESTED:          0 ISSUED:          0 USEFUL:          0 USELESS:          0
cpu0_STLB AVERAGE MISS LATENCY: 12.25 cycles

DRAM Statistics

Channel 0 RQ ROW_BUFFER_HIT:     511666
  ROW_BUFFER_MISS:     354539
 AVG DBUS CONGESTED CYCLE: 3.956
WQ ROW_BUFFER_HIT: Channel 0 
  ROW_BUFFER_MISS:     178765
  FULL:     317129
OPTgen accesses: 655
OPTgen hits: 72
OPTgen hit rate: 10.9924


