WARNING: physical memory size is smaller than virtual memory size.

*** ChampSim Multicore Out-of-Order Simulator ***
Warmup Instructions: 25000000
Simulation Instructions: 25000000
Number of CPUs: 1
Page size: 4096

Initialize Hawkeye state
Off-chip DRAM Size: 4 GiB Channels: 1 Width: 64-bit Data Race: 800 MT/s
Heartbeat CPU 0 instructions: 10000000 cycles: 2500074 heartbeat IPC: 4 cumulative IPC: 4 (Simulation time: 00 hr 00 min 32 sec)
Heartbeat CPU 0 instructions: 20000000 cycles: 5000074 heartbeat IPC: 4 cumulative IPC: 4 (Simulation time: 00 hr 01 min 03 sec)
Warmup finished CPU 0 instructions: 25000000 cycles: 6250075 cumulative IPC: 4 (Simulation time: 00 hr 01 min 19 sec)
Warmup complete CPU 0 instructions: 25000000 cycles: 6250075 cumulative IPC: 4 (Simulation time: 00 hr 01 min 19 sec)
Heartbeat CPU 0 instructions: 30000003 cycles: 16230904 heartbeat IPC: 0.8904 cumulative IPC: 0.501 (Simulation time: 00 hr 02 min 29 sec)
Heartbeat CPU 0 instructions: 40000003 cycles: 37018750 heartbeat IPC: 0.4811 cumulative IPC: 0.4875 (Simulation time: 00 hr 04 min 49 sec)
Heartbeat CPU 0 instructions: 50000001 cycles: 57831867 heartbeat IPC: 0.4805 cumulative IPC: 0.4847 (Simulation time: 00 hr 07 min 07 sec)
Simulation finished CPU 0 instructions: 25000001 cycles: 51581793 cumulative IPC: 0.4847 (Simulation time: 00 hr 07 min 07 sec)
Simulation complete CPU 0 instructions: 25000001 cycles: 51581793 cumulative IPC: 0.4847 (Simulation time: 00 hr 07 min 07 sec)

ChampSim completed all CPUs

=== Simulation ===
CPU 0 runs ./traces/libquantum_1735B.trace.xz
Region of Interest Statistics

CPU 0 cumulative IPC: 0.4847 instructions: 25000001 cycles: 51581793
CPU 0 Branch Prediction Accuracy: 88.5% MPKI: 24.39 Average ROB Occupancy at Mispredict: 3.883
Branch type MPKI
BRANCH_DIRECT_JUMP: 0
BRANCH_INDIRECT: 0
BRANCH_CONDITIONAL: 24.4
BRANCH_DIRECT_CALL: 8e-05
BRANCH_INDIRECT_CALL: 0
BRANCH_RETURN: 8e-05

LLC TOTAL        ACCESS:     959275 HIT:      30737 MISS:     928538
LLC LOAD         ACCESS:        134 HIT:         78 MISS:         56
LLC RFO          ACCESS:          8 HIT:          6 MISS:          2
LLC PREFETCH     ACCESS:     662610 HIT:      30625 MISS:     631985
LLC WRITE        ACCESS:     296495 HIT:         26 MISS:     296469
LLC TRANSLATION  ACCESS:         28 HIT:          2 MISS:         26
LLC PREFETCH REQUESTED:          0 ISSUED:          0 USEFUL:          0 USELESS:          0
LLC AVERAGE MISS LATENCY: 331.5 cycles
cpu0_DTLB TOTAL        ACCESS:    3222415 HIT:    3188354 MISS:      34061
cpu0_DTLB LOAD         ACCESS:    3222415 HIT:    3188354 MISS:      34061
cpu0_DTLB RFO          ACCESS:          0 HIT:          0 MISS:          0
cpu0_DTLB PREFETCH     ACCESS:          0 HIT:          0 MISS:          0
cpu0_DTLB WRITE        ACCESS:          0 HIT:          0 MISS:          0
cpu0_DTLB TRANSLATION  ACCESS:          0 HIT:          0 MISS:          0
cpu0_DTLB PREFETCH REQUESTED:          0 ISSUED:          0 USEFUL:          0 USELESS:          0
cpu0_DTLB AVERAGE MISS LATENCY: 3.464 cycles
cpu0_ITLB TOTAL        ACCESS:          2 HIT:          2 MISS:          0
cpu0_ITLB LOAD         ACCESS:          2 HIT:          2 MISS:          0
cpu0_ITLB RFO          ACCESS:          0 HIT:          0 MISS:          0
cpu0_ITLB PREFETCH     ACCESS:          0 HIT:          0 MISS:          0
cpu0_ITLB WRITE        ACCESS:          0 HIT:          0 MISS:          0
cpu0_ITLB TRANSLATION  ACCESS:          0 HIT:          0 MISS:          0
cpu0_ITLB PREFETCH REQUESTED:          0 ISSUED:          0 USEFUL:          0 USELESS:          0
cpu0_ITLB AVERAGE MISS LATENCY: -nan cycles
cpu0_L1D TOTAL        ACCESS:    5882494 HIT:    1935049 MISS:    3947445
cpu0_L1D LOAD         ACCESS:    2649757 HIT:    1033566 MISS:    1616191
cpu0_L1D RFO          ACCESS:          0 HIT:          0 MISS:          0
cpu0_L1D PREFETCH     ACCESS:    2649669 HIT:     318471 MISS:    2331198
cpu0_L1D WRITE        ACCESS:     572706 HIT:     572678 MISS:         28
cpu0_L1D TRANSLATION  ACCESS:      10362 HIT:      10334 MISS:         28
cpu0_L1D PREFETCH REQUESTED:    2649757 ISSUED:    2649668 USEFUL:     660177 USELESS:         32
cpu0_L1D AVERAGE MISS LATENCY: 44.2 cycles
cpu0_L1I TOTAL        ACCESS:          2 HIT:          2 MISS:          0
cpu0_L1I LOAD         ACCESS:          2 HIT:          2 MISS:          0
cpu0_L1I RFO          ACCESS:          0 HIT:          0 MISS:          0
cpu0_L1I PREFETCH     ACCESS:          0 HIT:          0 MISS:          0
cpu0_L1I WRITE        ACCESS:          0 HIT:          0 MISS:          0
cpu0_L1I TRANSLATION  ACCESS:          0 HIT:          0 MISS:          0
cpu0_L1I PREFETCH REQUESTED:          0 ISSUED:          0 USEFUL:          0 USELESS:          0
cpu0_L1I AVERAGE MISS LATENCY: -nan cycles
cpu0_L2C TOTAL        ACCESS:    2869598 HIT:     456427 MISS:    2413171
cpu0_L2C LOAD         ACCESS:       2461 HIT:         11 MISS:       2450
cpu0_L2C RFO          ACCESS:          8 HIT:          0 MISS:          8
cpu0_L2C PREFETCH     ACCESS:    2573269 HIT:     162584 MISS:    2410685
cpu0_L2C WRITE        ACCESS:     293832 HIT:     293832 MISS:          0
cpu0_L2C TRANSLATION  ACCESS:         28 HIT:          0 MISS:         28
cpu0_L2C PREFETCH REQUESTED:    1913059 ISSUED:    1913059 USEFUL:     299785 USELESS:     346583
cpu0_L2C AVERAGE MISS LATENCY: 133.3 cycles
cpu0_STLB TOTAL        ACCESS:      10362 HIT:          0 MISS:      10362
cpu0_STLB LOAD         ACCESS:      10362 HIT:          0 MISS:      10362
cpu0_STLB RFO          ACCESS:          0 HIT:          0 MISS:          0
cpu0_STLB PREFETCH     ACCESS:          0 HIT:          0 MISS:          0
cpu0_STLB WRITE        ACCESS:          0 HIT:          0 MISS:          0
cpu0_STLB TRANSLATION  ACCESS:          0 HIT:          0 MISS:          0
cpu0_STLB PREFETCH REQUESTED:          0 ISSUED:          0 USEFUL:          0 USELESS:          0
cpu0_STLB AVERAGE MISS LATENCY: 7.732 cycles

DRAM Statistics

Channel 0 RQ ROW_BUFFER_HIT:     389084
  ROW_BUFFER_MISS:     242967
 AVG DBUS CONGESTED CYCLE: 3.94
WQ ROW_BUFFER_HIT: Channel 0 
  ROW_BUFFER_MISS:      97545
  FULL:     200345
OPTgen accesses: 4
OPTgen hits: 0
OPTgen hit rate: 0


