WARNING: physical memory size is smaller than virtual memory size.

*** ChampSim Multicore Out-of-Order Simulator ***
Warmup Instructions: 25000000
Simulation Instructions: 25000000
Number of CPUs: 1
Page size: 4096

Initialize Hawkeye state
Off-chip DRAM Size: 4 GiB Channels: 1 Width: 64-bit Data Race: 800 MT/s
Heartbeat CPU 0 instructions: 10000001 cycles: 2500095 heartbeat IPC: 4 cumulative IPC: 4 (Simulation time: 00 hr 00 min 38 sec)
Heartbeat CPU 0 instructions: 20000001 cycles: 5000095 heartbeat IPC: 4 cumulative IPC: 4 (Simulation time: 00 hr 01 min 16 sec)
Warmup finished CPU 0 instructions: 25000001 cycles: 6250096 cumulative IPC: 4 (Simulation time: 00 hr 01 min 36 sec)
Warmup complete CPU 0 instructions: 25000001 cycles: 6250096 cumulative IPC: 4 (Simulation time: 00 hr 01 min 36 sec)
Heartbeat CPU 0 instructions: 30000002 cycles: 16144974 heartbeat IPC: 0.8973 cumulative IPC: 0.5053 (Simulation time: 00 hr 03 min 06 sec)
Heartbeat CPU 0 instructions: 40000002 cycles: 35955809 heartbeat IPC: 0.5048 cumulative IPC: 0.505 (Simulation time: 00 hr 06 min 04 sec)
Heartbeat CPU 0 instructions: 50000002 cycles: 70351494 heartbeat IPC: 0.2907 cumulative IPC: 0.39 (Simulation time: 00 hr 11 min 16 sec)
Simulation finished CPU 0 instructions: 25000001 cycles: 64101399 cumulative IPC: 0.39 (Simulation time: 00 hr 11 min 16 sec)
Simulation complete CPU 0 instructions: 25000001 cycles: 64101399 cumulative IPC: 0.39 (Simulation time: 00 hr 11 min 16 sec)

ChampSim completed all CPUs

=== Simulation ===
CPU 0 runs ./traces/milc_360B.trace.xz
Region of Interest Statistics

CPU 0 cumulative IPC: 0.39 instructions: 25000001 cycles: 64101399
CPU 0 Branch Prediction Accuracy: 100% MPKI: 0.00052 Average ROB Occupancy at Mispredict: 100.6
Branch type MPKI
BRANCH_DIRECT_JUMP: 0
BRANCH_INDIRECT: 0
BRANCH_CONDITIONAL: 0.00036
BRANCH_DIRECT_CALL: 0.00012
BRANCH_INDIRECT_CALL: 0
BRANCH_RETURN: 4e-05

LLC TOTAL        ACCESS:     902310 HIT:       3014 MISS:     899296
LLC LOAD         ACCESS:     249605 HIT:       1931 MISS:     247674
LLC RFO          ACCESS:       2962 HIT:          0 MISS:       2962
LLC PREFETCH     ACCESS:     404454 HIT:        827 MISS:     403627
LLC WRITE        ACCESS:     245129 HIT:        256 MISS:     244873
LLC TRANSLATION  ACCESS:        160 HIT:          0 MISS:        160
LLC PREFETCH REQUESTED:          0 ISSUED:          0 USEFUL:          0 USELESS:          0
LLC AVERAGE MISS LATENCY: 821.8 cycles
cpu0_DTLB TOTAL        ACCESS:    5962751 HIT:    5738449 MISS:     224302
cpu0_DTLB LOAD         ACCESS:    5962751 HIT:    5738449 MISS:     224302
cpu0_DTLB RFO          ACCESS:          0 HIT:          0 MISS:          0
cpu0_DTLB PREFETCH     ACCESS:          0 HIT:          0 MISS:          0
cpu0_DTLB WRITE        ACCESS:          0 HIT:          0 MISS:          0
cpu0_DTLB TRANSLATION  ACCESS:          0 HIT:          0 MISS:          0
cpu0_DTLB PREFETCH REQUESTED:          0 ISSUED:          0 USEFUL:          0 USELESS:          0
cpu0_DTLB AVERAGE MISS LATENCY: 18.44 cycles
cpu0_ITLB TOTAL        ACCESS:         17 HIT:         15 MISS:          2
cpu0_ITLB LOAD         ACCESS:         17 HIT:         15 MISS:          2
cpu0_ITLB RFO          ACCESS:          0 HIT:          0 MISS:          0
cpu0_ITLB PREFETCH     ACCESS:          0 HIT:          0 MISS:          0
cpu0_ITLB WRITE        ACCESS:          0 HIT:          0 MISS:          0
cpu0_ITLB TRANSLATION  ACCESS:          0 HIT:          0 MISS:          0
cpu0_ITLB PREFETCH REQUESTED:          0 ISSUED:          0 USEFUL:          0 USELESS:          0
cpu0_ITLB AVERAGE MISS LATENCY: 1098 cycles
cpu0_L1D TOTAL        ACCESS:   10277255 HIT:    7121518 MISS:    3155737
cpu0_L1D LOAD         ACCESS:    2692248 HIT:    1069040 MISS:    1623208
cpu0_L1D RFO          ACCESS:          0 HIT:          0 MISS:          0
cpu0_L1D PREFETCH     ACCESS:    2167199 HIT:     706627 MISS:    1460572
cpu0_L1D WRITE        ACCESS:    5381275 HIT:    5310937 MISS:      70338
cpu0_L1D TRANSLATION  ACCESS:      36533 HIT:      34914 MISS:       1619
cpu0_L1D PREFETCH REQUESTED:    2704540 ISSUED:    2167207 USEFUL:     237697 USELESS:     126185
cpu0_L1D AVERAGE MISS LATENCY: 181 cycles
cpu0_L1I TOTAL        ACCESS:         17 HIT:          3 MISS:         14
cpu0_L1I LOAD         ACCESS:         17 HIT:          3 MISS:         14
cpu0_L1I RFO          ACCESS:          0 HIT:          0 MISS:          0
cpu0_L1I PREFETCH     ACCESS:          0 HIT:          0 MISS:          0
cpu0_L1I WRITE        ACCESS:          0 HIT:          0 MISS:          0
cpu0_L1I TRANSLATION  ACCESS:          0 HIT:          0 MISS:          0
cpu0_L1I PREFETCH REQUESTED:          0 ISSUED:          0 USEFUL:          0 USELESS:          0
cpu0_L1I AVERAGE MISS LATENCY: 332.5 cycles
cpu0_L2C TOTAL        ACCESS:    1058380 HIT:     285567 MISS:     772813
cpu0_L2C LOAD         ACCESS:     284326 HIT:       8997 MISS:     275329
cpu0_L2C RFO          ACCESS:      11987 HIT:       9024 MISS:       2963
cpu0_L2C PREFETCH     ACCESS:     504071 HIT:       9712 MISS:     494359
cpu0_L2C WRITE        ACCESS:     256379 HIT:     256377 MISS:          2
cpu0_L2C TRANSLATION  ACCESS:       1617 HIT:       1457 MISS:        160
cpu0_L2C PREFETCH REQUESTED:     140224 ISSUED:     140224 USEFUL:      46943 USELESS:       5757
cpu0_L2C AVERAGE MISS LATENCY: 934.6 cycles
cpu0_STLB TOTAL        ACCESS:      36455 HIT:          0 MISS:      36455
cpu0_STLB LOAD         ACCESS:      36455 HIT:          0 MISS:      36455
cpu0_STLB RFO          ACCESS:          0 HIT:          0 MISS:          0
cpu0_STLB PREFETCH     ACCESS:          0 HIT:          0 MISS:          0
cpu0_STLB WRITE        ACCESS:          0 HIT:          0 MISS:          0
cpu0_STLB TRANSLATION  ACCESS:          0 HIT:          0 MISS:          0
cpu0_STLB PREFETCH REQUESTED:          0 ISSUED:          0 USEFUL:          0 USELESS:          0
cpu0_STLB AVERAGE MISS LATENCY: 209.9 cycles

DRAM Statistics

Channel 0 RQ ROW_BUFFER_HIT:     436053
  ROW_BUFFER_MISS:     213775
 AVG DBUS CONGESTED CYCLE: 3.874
WQ ROW_BUFFER_HIT: Channel 0 
  ROW_BUFFER_MISS:      92119
  FULL:     152190
OPTgen accesses: 3923
OPTgen hits: 12
OPTgen hit rate: 0.305889


