WARNING: physical memory size is smaller than virtual memory size.

*** ChampSim Multicore Out-of-Order Simulator ***
Warmup Instructions: 25000000
Simulation Instructions: 25000000
Number of CPUs: 1
Page size: 4096

Initialize Hawkeye state
Off-chip DRAM Size: 4 GiB Channels: 1 Width: 64-bit Data Race: 800 MT/s
Heartbeat CPU 0 instructions: 10000003 cycles: 2500094 heartbeat IPC: 4 cumulative IPC: 4 (Simulation time: 00 hr 00 min 33 sec)
Heartbeat CPU 0 instructions: 20000001 cycles: 5000131 heartbeat IPC: 4 cumulative IPC: 4 (Simulation time: 00 hr 01 min 04 sec)
Warmup finished CPU 0 instructions: 25000002 cycles: 6250155 cumulative IPC: 4 (Simulation time: 00 hr 01 min 21 sec)
Warmup complete CPU 0 instructions: 25000002 cycles: 6250155 cumulative IPC: 4 (Simulation time: 00 hr 01 min 21 sec)
Heartbeat CPU 0 instructions: 30000002 cycles: 14519893 heartbeat IPC: 1.05 cumulative IPC: 0.6046 (Simulation time: 00 hr 02 min 35 sec)
Heartbeat CPU 0 instructions: 40000000 cycles: 33016660 heartbeat IPC: 0.5406 cumulative IPC: 0.5604 (Simulation time: 00 hr 05 min 22 sec)
Heartbeat CPU 0 instructions: 50000000 cycles: 42917386 heartbeat IPC: 1.01 cumulative IPC: 0.6818 (Simulation time: 00 hr 06 min 50 sec)
Simulation finished CPU 0 instructions: 25000000 cycles: 36667233 cumulative IPC: 0.6818 (Simulation time: 00 hr 06 min 50 sec)
Simulation complete CPU 0 instructions: 25000000 cycles: 36667233 cumulative IPC: 0.6818 (Simulation time: 00 hr 06 min 50 sec)

ChampSim completed all CPUs

=== Simulation ===
CPU 0 runs ./traces/omnetpp_17B.trace.xz
Region of Interest Statistics

CPU 0 cumulative IPC: 0.6818 instructions: 25000000 cycles: 36667233
CPU 0 Branch Prediction Accuracy: 96.94% MPKI: 10.14 Average ROB Occupancy at Mispredict: 34.97
Branch type MPKI
BRANCH_DIRECT_JUMP: 0.00348
BRANCH_INDIRECT: 0.0812
BRANCH_CONDITIONAL: 10
BRANCH_DIRECT_CALL: 0.0004
BRANCH_INDIRECT_CALL: 0.0034
BRANCH_RETURN: 0.0249

LLC TOTAL        ACCESS:     707227 HIT:     249124 MISS:     458103
LLC LOAD         ACCESS:     449523 HIT:     210149 MISS:     239374
LLC RFO          ACCESS:       1402 HIT:        359 MISS:       1043
LLC PREFETCH     ACCESS:     202878 HIT:      34660 MISS:     168218
LLC WRITE        ACCESS:       3091 HIT:       2056 MISS:       1035
LLC TRANSLATION  ACCESS:      50333 HIT:       1900 MISS:      48433
LLC PREFETCH REQUESTED:          0 ISSUED:          0 USEFUL:          0 USELESS:          0
LLC AVERAGE MISS LATENCY: 908.6 cycles
cpu0_DTLB TOTAL        ACCESS:    2649184 HIT:    2259841 MISS:     389343
cpu0_DTLB LOAD         ACCESS:    2649184 HIT:    2259841 MISS:     389343
cpu0_DTLB RFO          ACCESS:          0 HIT:          0 MISS:          0
cpu0_DTLB PREFETCH     ACCESS:          0 HIT:          0 MISS:          0
cpu0_DTLB WRITE        ACCESS:          0 HIT:          0 MISS:          0
cpu0_DTLB TRANSLATION  ACCESS:          0 HIT:          0 MISS:          0
cpu0_DTLB PREFETCH REQUESTED:          0 ISSUED:          0 USEFUL:          0 USELESS:          0
cpu0_DTLB AVERAGE MISS LATENCY: 272.4 cycles
cpu0_ITLB TOTAL        ACCESS:     152933 HIT:     151487 MISS:       1446
cpu0_ITLB LOAD         ACCESS:     152933 HIT:     151487 MISS:       1446
cpu0_ITLB RFO          ACCESS:          0 HIT:          0 MISS:          0
cpu0_ITLB PREFETCH     ACCESS:          0 HIT:          0 MISS:          0
cpu0_ITLB WRITE        ACCESS:          0 HIT:          0 MISS:          0
cpu0_ITLB TRANSLATION  ACCESS:          0 HIT:          0 MISS:          0
cpu0_ITLB PREFETCH REQUESTED:          0 ISSUED:          0 USEFUL:          0 USELESS:          0
cpu0_ITLB AVERAGE MISS LATENCY: 57.79 cycles
cpu0_L1D TOTAL        ACCESS:    5151604 HIT:    4208828 MISS:     942776
cpu0_L1D LOAD         ACCESS:    2109166 HIT:    1608651 MISS:     500515
cpu0_L1D RFO          ACCESS:          0 HIT:          0 MISS:          0
cpu0_L1D PREFETCH     ACCESS:    1920144 HIT:    1546053 MISS:     374091
cpu0_L1D WRITE        ACCESS:     831172 HIT:     820749 MISS:      10423
cpu0_L1D TRANSLATION  ACCESS:     291122 HIT:     233375 MISS:      57747
cpu0_L1D PREFETCH REQUESTED:   18701203 ISSUED:    1920141 USEFUL:      17016 USELESS:     135810
cpu0_L1D AVERAGE MISS LATENCY: 434.9 cycles
cpu0_L1I TOTAL        ACCESS:     169232 HIT:     167627 MISS:       1605
cpu0_L1I LOAD         ACCESS:     169232 HIT:     167627 MISS:       1605
cpu0_L1I RFO          ACCESS:          0 HIT:          0 MISS:          0
cpu0_L1I PREFETCH     ACCESS:          0 HIT:          0 MISS:          0
cpu0_L1I WRITE        ACCESS:          0 HIT:          0 MISS:          0
cpu0_L1I TRANSLATION  ACCESS:          0 HIT:          0 MISS:          0
cpu0_L1I PREFETCH REQUESTED:          0 ISSUED:          0 USEFUL:          0 USELESS:          0
cpu0_L1I AVERAGE MISS LATENCY: 147.7 cycles
cpu0_L2C TOTAL        ACCESS:     744638 HIT:      29494 MISS:     715144
cpu0_L2C LOAD         ACCESS:     463094 HIT:      10870 MISS:     452224
cpu0_L2C RFO          ACCESS:       2102 HIT:        675 MISS:       1427
cpu0_L2C PREFETCH     ACCESS:     220724 HIT:       9564 MISS:     211160
cpu0_L2C WRITE        ACCESS:       4596 HIT:       4596 MISS:          0
cpu0_L2C TRANSLATION  ACCESS:      54122 HIT:       3789 MISS:      50333
cpu0_L2C PREFETCH REQUESTED:      68002 ISSUED:      68002 USEFUL:      13630 USELESS:       1380
cpu0_L2C AVERAGE MISS LATENCY: 581.6 cycles
cpu0_STLB TOTAL        ACCESS:     292687 HIT:       4118 MISS:     288569
cpu0_STLB LOAD         ACCESS:     292687 HIT:       4118 MISS:     288569
cpu0_STLB RFO          ACCESS:          0 HIT:          0 MISS:          0
cpu0_STLB PREFETCH     ACCESS:          0 HIT:          0 MISS:          0
cpu0_STLB WRITE        ACCESS:          0 HIT:          0 MISS:          0
cpu0_STLB TRANSLATION  ACCESS:          0 HIT:          0 MISS:          0
cpu0_STLB PREFETCH REQUESTED:          0 ISSUED:          0 USEFUL:          0 USELESS:          0
cpu0_STLB AVERAGE MISS LATENCY: 375.7 cycles

DRAM Statistics

Channel 0 RQ ROW_BUFFER_HIT:     168687
  ROW_BUFFER_MISS:     269351
 AVG DBUS CONGESTED CYCLE: 3.856
WQ ROW_BUFFER_HIT: Channel 0 
  ROW_BUFFER_MISS:        412
  FULL:       2832
OPTgen accesses: 3236
OPTgen hits: 2674
OPTgen hit rate: 82.6329


