WARNING: physical memory size is smaller than virtual memory size.

*** ChampSim Multicore Out-of-Order Simulator ***
Warmup Instructions: 25000000
Simulation Instructions: 25000000
Number of CPUs: 1
Page size: 4096

Initialize Hawkeye state
Off-chip DRAM Size: 4 GiB Channels: 1 Width: 64-bit Data Race: 800 MT/s
Heartbeat CPU 0 instructions: 10000003 cycles: 2517006 heartbeat IPC: 3.973 cumulative IPC: 3.973 (Simulation time: 00 hr 00 min 34 sec)
Heartbeat CPU 0 instructions: 20000001 cycles: 5026666 heartbeat IPC: 3.985 cumulative IPC: 3.979 (Simulation time: 00 hr 01 min 06 sec)
Warmup finished CPU 0 instructions: 25000003 cycles: 6285083 cumulative IPC: 3.978 (Simulation time: 00 hr 01 min 23 sec)
Warmup complete CPU 0 instructions: 25000003 cycles: 6285083 cumulative IPC: 3.978 (Simulation time: 00 hr 01 min 23 sec)
Heartbeat CPU 0 instructions: 30000000 cycles: 15047866 heartbeat IPC: 0.9979 cumulative IPC: 0.5706 (Simulation time: 00 hr 02 min 41 sec)
Heartbeat CPU 0 instructions: 40000001 cycles: 31272063 heartbeat IPC: 0.6164 cumulative IPC: 0.6003 (Simulation time: 00 hr 05 min 08 sec)
Heartbeat CPU 0 instructions: 50000002 cycles: 45719795 heartbeat IPC: 0.6922 cumulative IPC: 0.634 (Simulation time: 00 hr 07 min 17 sec)
Simulation finished CPU 0 instructions: 25000003 cycles: 39434714 cumulative IPC: 0.634 (Simulation time: 00 hr 07 min 17 sec)
Simulation complete CPU 0 instructions: 25000003 cycles: 39434714 cumulative IPC: 0.634 (Simulation time: 00 hr 07 min 17 sec)

ChampSim completed all CPUs

=== Simulation ===
CPU 0 runs ./traces/omnetpp_4B.trace.xz
Region of Interest Statistics

CPU 0 cumulative IPC: 0.634 instructions: 25000003 cycles: 39434714
CPU 0 Branch Prediction Accuracy: 96.67% MPKI: 10.7 Average ROB Occupancy at Mispredict: 31.63
Branch type MPKI
BRANCH_DIRECT_JUMP: 0.0128
BRANCH_INDIRECT: 0.125
BRANCH_CONDITIONAL: 10.5
BRANCH_DIRECT_CALL: 0.00156
BRANCH_INDIRECT_CALL: 0.00548
BRANCH_RETURN: 0.0298

LLC TOTAL        ACCESS:     963657 HIT:     479323 MISS:     484334
LLC LOAD         ACCESS:     572058 HIT:     386926 MISS:     185132
LLC RFO          ACCESS:       6340 HIT:        963 MISS:       5377
LLC PREFETCH     ACCESS:     301112 HIT:      59535 MISS:     241577
LLC WRITE        ACCESS:      20965 HIT:      11193 MISS:       9772
LLC TRANSLATION  ACCESS:      63182 HIT:      20706 MISS:      42476
LLC PREFETCH REQUESTED:          0 ISSUED:          0 USEFUL:          0 USELESS:          0
LLC AVERAGE MISS LATENCY: 898.9 cycles
cpu0_DTLB TOTAL        ACCESS:    3086637 HIT:    2609690 MISS:     476947
cpu0_DTLB LOAD         ACCESS:    3086637 HIT:    2609690 MISS:     476947
cpu0_DTLB RFO          ACCESS:          0 HIT:          0 MISS:          0
cpu0_DTLB PREFETCH     ACCESS:          0 HIT:          0 MISS:          0
cpu0_DTLB WRITE        ACCESS:          0 HIT:          0 MISS:          0
cpu0_DTLB TRANSLATION  ACCESS:          0 HIT:          0 MISS:          0
cpu0_DTLB PREFETCH REQUESTED:          0 ISSUED:          0 USEFUL:          0 USELESS:          0
cpu0_DTLB AVERAGE MISS LATENCY: 203.2 cycles
cpu0_ITLB TOTAL        ACCESS:     265134 HIT:     247746 MISS:      17388
cpu0_ITLB LOAD         ACCESS:     265134 HIT:     247746 MISS:      17388
cpu0_ITLB RFO          ACCESS:          0 HIT:          0 MISS:          0
cpu0_ITLB PREFETCH     ACCESS:          0 HIT:          0 MISS:          0
cpu0_ITLB WRITE        ACCESS:          0 HIT:          0 MISS:          0
cpu0_ITLB TRANSLATION  ACCESS:          0 HIT:          0 MISS:          0
cpu0_ITLB PREFETCH REQUESTED:          0 ISSUED:          0 USEFUL:          0 USELESS:          0
cpu0_ITLB AVERAGE MISS LATENCY: 7.93 cycles
cpu0_L1D TOTAL        ACCESS:    6218730 HIT:    4777502 MISS:    1441228
cpu0_L1D LOAD         ACCESS:    2366511 HIT:    1709611 MISS:     656900
cpu0_L1D RFO          ACCESS:          0 HIT:          0 MISS:          0
cpu0_L1D PREFETCH     ACCESS:    2285831 HIT:    1620972 MISS:     664859
cpu0_L1D WRITE        ACCESS:    1204436 HIT:    1157237 MISS:      47199
cpu0_L1D TRANSLATION  ACCESS:     361952 HIT:     289682 MISS:      72270
cpu0_L1D PREFETCH REQUESTED:   17530642 ISSUED:    2285831 USEFUL:      39035 USELESS:     209472
cpu0_L1D AVERAGE MISS LATENCY: 300 cycles
cpu0_L1I TOTAL        ACCESS:     291337 HIT:     267461 MISS:      23876
cpu0_L1I LOAD         ACCESS:     291337 HIT:     267461 MISS:      23876
cpu0_L1I RFO          ACCESS:          0 HIT:          0 MISS:          0
cpu0_L1I PREFETCH     ACCESS:          0 HIT:          0 MISS:          0
cpu0_L1I WRITE        ACCESS:          0 HIT:          0 MISS:          0
cpu0_L1I TRANSLATION  ACCESS:          0 HIT:          0 MISS:          0
cpu0_L1I PREFETCH REQUESTED:          0 ISSUED:          0 USEFUL:          0 USELESS:          0
cpu0_L1I AVERAGE MISS LATENCY: 74.13 cycles
cpu0_L2C TOTAL        ACCESS:    1045618 HIT:      72262 MISS:     973356
cpu0_L2C LOAD         ACCESS:     603235 HIT:      21183 MISS:     582052
cpu0_L2C RFO          ACCESS:       8103 HIT:       1755 MISS:       6348
cpu0_L2C PREFETCH     ACCESS:     342562 HIT:      20801 MISS:     321761
cpu0_L2C WRITE        ACCESS:      23205 HIT:      23192 MISS:         13
cpu0_L2C TRANSLATION  ACCESS:      68513 HIT:       5331 MISS:      63182
cpu0_L2C PREFETCH REQUESTED:      94049 ISSUED:      94049 USEFUL:      25430 USELESS:       3361
cpu0_L2C AVERAGE MISS LATENCY: 453.3 cycles
cpu0_STLB TOTAL        ACCESS:     365494 HIT:       5909 MISS:     359585
cpu0_STLB LOAD         ACCESS:     365494 HIT:       5909 MISS:     359585
cpu0_STLB RFO          ACCESS:          0 HIT:          0 MISS:          0
cpu0_STLB PREFETCH     ACCESS:          0 HIT:          0 MISS:          0
cpu0_STLB WRITE        ACCESS:          0 HIT:          0 MISS:          0
cpu0_STLB TRANSLATION  ACCESS:          0 HIT:          0 MISS:          0
cpu0_STLB PREFETCH REQUESTED:          0 ISSUED:          0 USEFUL:          0 USELESS:          0
cpu0_STLB AVERAGE MISS LATENCY: 272.8 cycles

DRAM Statistics

Channel 0 RQ ROW_BUFFER_HIT:     158550
  ROW_BUFFER_MISS:     298598
 AVG DBUS CONGESTED CYCLE: 3.867
WQ ROW_BUFFER_HIT: Channel 0 
  ROW_BUFFER_MISS:       3428
  FULL:      16705
OPTgen accesses: 4658
OPTgen hits: 4251
OPTgen hit rate: 91.2624


