WARNING: physical memory size is smaller than virtual memory size.

*** ChampSim Multicore Out-of-Order Simulator ***
Warmup Instructions: 25000000
Simulation Instructions: 25000000
Number of CPUs: 1
Page size: 4096

Initialize Hawkeye state
Off-chip DRAM Size: 4 GiB Channels: 1 Width: 64-bit Data Race: 800 MT/s
Heartbeat CPU 0 instructions: 10000003 cycles: 2531182 heartbeat IPC: 3.951 cumulative IPC: 3.951 (Simulation time: 00 hr 00 min 35 sec)
Heartbeat CPU 0 instructions: 20000003 cycles: 5062001 heartbeat IPC: 3.951 cumulative IPC: 3.951 (Simulation time: 00 hr 01 min 08 sec)
Warmup finished CPU 0 instructions: 25000001 cycles: 6327270 cumulative IPC: 3.951 (Simulation time: 00 hr 01 min 24 sec)
Warmup complete CPU 0 instructions: 25000001 cycles: 6327270 cumulative IPC: 3.951 (Simulation time: 00 hr 01 min 24 sec)
Heartbeat CPU 0 instructions: 30000003 cycles: 12195793 heartbeat IPC: 1.402 cumulative IPC: 0.852 (Simulation time: 00 hr 02 min 18 sec)
Heartbeat CPU 0 instructions: 40000002 cycles: 22567116 heartbeat IPC: 0.9642 cumulative IPC: 0.9237 (Simulation time: 00 hr 03 min 55 sec)
Heartbeat CPU 0 instructions: 50000003 cycles: 34320059 heartbeat IPC: 0.8509 cumulative IPC: 0.8931 (Simulation time: 00 hr 05 min 32 sec)
Simulation finished CPU 0 instructions: 25000002 cycles: 27992790 cumulative IPC: 0.8931 (Simulation time: 00 hr 05 min 32 sec)
Simulation complete CPU 0 instructions: 25000002 cycles: 27992790 cumulative IPC: 0.8931 (Simulation time: 00 hr 05 min 32 sec)

ChampSim completed all CPUs

=== Simulation ===
CPU 0 runs ./traces/sphinx3_883B.trace.xz
Region of Interest Statistics

CPU 0 cumulative IPC: 0.8931 instructions: 25000002 cycles: 27992790
CPU 0 Branch Prediction Accuracy: 93.21% MPKI: 6.577 Average ROB Occupancy at Mispredict: 171.8
Branch type MPKI
BRANCH_DIRECT_JUMP: 0.328
BRANCH_INDIRECT: 0
BRANCH_CONDITIONAL: 6.16
BRANCH_DIRECT_CALL: 0
BRANCH_INDIRECT_CALL: 0
BRANCH_RETURN: 0.0907

LLC TOTAL        ACCESS:     494941 HIT:     155114 MISS:     339827
LLC LOAD         ACCESS:     156460 HIT:      70964 MISS:      85496
LLC RFO          ACCESS:      20923 HIT:       8794 MISS:      12129
LLC PREFETCH     ACCESS:     276850 HIT:      40555 MISS:     236295
LLC WRITE        ACCESS:      34842 HIT:      30049 MISS:       4793
LLC TRANSLATION  ACCESS:       5866 HIT:       4752 MISS:       1114
LLC PREFETCH REQUESTED:          0 ISSUED:          0 USEFUL:          0 USELESS:          0
LLC AVERAGE MISS LATENCY: 457.7 cycles
cpu0_DTLB TOTAL        ACCESS:    5089568 HIT:    4953369 MISS:     136199
cpu0_DTLB LOAD         ACCESS:    5089568 HIT:    4953369 MISS:     136199
cpu0_DTLB RFO          ACCESS:          0 HIT:          0 MISS:          0
cpu0_DTLB PREFETCH     ACCESS:          0 HIT:          0 MISS:          0
cpu0_DTLB WRITE        ACCESS:          0 HIT:          0 MISS:          0
cpu0_DTLB TRANSLATION  ACCESS:          0 HIT:          0 MISS:          0
cpu0_DTLB PREFETCH REQUESTED:          0 ISSUED:          0 USEFUL:          0 USELESS:          0
cpu0_DTLB AVERAGE MISS LATENCY: 5.731 cycles
cpu0_ITLB TOTAL        ACCESS:       2010 HIT:       2010 MISS:          0
cpu0_ITLB LOAD         ACCESS:       2010 HIT:       2010 MISS:          0
cpu0_ITLB RFO          ACCESS:          0 HIT:          0 MISS:          0
cpu0_ITLB PREFETCH     ACCESS:          0 HIT:          0 MISS:          0
cpu0_ITLB WRITE        ACCESS:          0 HIT:          0 MISS:          0
cpu0_ITLB TRANSLATION  ACCESS:          0 HIT:          0 MISS:          0
cpu0_ITLB PREFETCH REQUESTED:          0 ISSUED:          0 USEFUL:          0 USELESS:          0
cpu0_ITLB AVERAGE MISS LATENCY: -nan cycles
cpu0_L1D TOTAL        ACCESS:    9968660 HIT:    5367630 MISS:    4601030
cpu0_L1D LOAD         ACCESS:    5594304 HIT:    3018487 MISS:    2575817
cpu0_L1D RFO          ACCESS:          0 HIT:          0 MISS:          0
cpu0_L1D PREFETCH     ACCESS:    3713784 HIT:    1782916 MISS:    1930868
cpu0_L1D WRITE        ACCESS:     643620 HIT:     561992 MISS:      81628
cpu0_L1D TRANSLATION  ACCESS:      16952 HIT:       4235 MISS:      12717
cpu0_L1D PREFETCH REQUESTED:    5633738 ISSUED:    3713787 USEFUL:     208413 USELESS:      88827
cpu0_L1D AVERAGE MISS LATENCY: 21.31 cycles
cpu0_L1I TOTAL        ACCESS:       2292 HIT:       2292 MISS:          0
cpu0_L1I LOAD         ACCESS:       2292 HIT:       2292 MISS:          0
cpu0_L1I RFO          ACCESS:          0 HIT:          0 MISS:          0
cpu0_L1I PREFETCH     ACCESS:          0 HIT:          0 MISS:          0
cpu0_L1I WRITE        ACCESS:          0 HIT:          0 MISS:          0
cpu0_L1I TRANSLATION  ACCESS:          0 HIT:          0 MISS:          0
cpu0_L1I PREFETCH REQUESTED:          0 ISSUED:          0 USEFUL:          0 USELESS:          0
cpu0_L1I AVERAGE MISS LATENCY: -nan cycles
cpu0_L2C TOTAL        ACCESS:     750284 HIT:     264754 MISS:     485530
cpu0_L2C LOAD         ACCESS:     287074 HIT:     128840 MISS:     158234
cpu0_L2C RFO          ACCESS:      25436 HIT:       4513 MISS:      20923
cpu0_L2C PREFETCH     ACCESS:     383445 HIT:      83044 MISS:     300401
cpu0_L2C WRITE        ACCESS:      41761 HIT:      41655 MISS:        106
cpu0_L2C TRANSLATION  ACCESS:      12568 HIT:       6702 MISS:       5866
cpu0_L2C PREFETCH REQUESTED:      86205 ISSUED:      86205 USEFUL:      19435 USELESS:      31279
cpu0_L2C AVERAGE MISS LATENCY: 337.8 cycles
cpu0_STLB TOTAL        ACCESS:      48436 HIT:      31478 MISS:      16958
cpu0_STLB LOAD         ACCESS:      48436 HIT:      31478 MISS:      16958
cpu0_STLB RFO          ACCESS:          0 HIT:          0 MISS:          0
cpu0_STLB PREFETCH     ACCESS:          0 HIT:          0 MISS:          0
cpu0_STLB WRITE        ACCESS:          0 HIT:          0 MISS:          0
cpu0_STLB TRANSLATION  ACCESS:          0 HIT:          0 MISS:          0
cpu0_STLB PREFETCH REQUESTED:          0 ISSUED:          0 USEFUL:          0 USELESS:          0
cpu0_STLB AVERAGE MISS LATENCY: 50.79 cycles

DRAM Statistics

Channel 0 RQ ROW_BUFFER_HIT:     188819
  ROW_BUFFER_MISS:     145733
 AVG DBUS CONGESTED CYCLE: 3.885
WQ ROW_BUFFER_HIT: Channel 0 
  ROW_BUFFER_MISS:       1837
  FULL:      18935
OPTgen accesses: 1376
OPTgen hits: 1063
OPTgen hit rate: 77.253


