WARNING: physical memory size is smaller than virtual memory size.

*** ChampSim Multicore Out-of-Order Simulator ***
Warmup Instructions: 25000000
Simulation Instructions: 25000000
Number of CPUs: 1
Page size: 4096

Initialize Hawkeye state
Off-chip DRAM Size: 4 GiB Channels: 1 Width: 64-bit Data Race: 800 MT/s
Heartbeat CPU 0 instructions: 10000000 cycles: 2501836 heartbeat IPC: 3.997 cumulative IPC: 3.997 (Simulation time: 00 hr 00 min 33 sec)
Heartbeat CPU 0 instructions: 20000000 cycles: 5004592 heartbeat IPC: 3.996 cumulative IPC: 3.996 (Simulation time: 00 hr 01 min 07 sec)
Warmup finished CPU 0 instructions: 25000002 cycles: 6255966 cumulative IPC: 3.996 (Simulation time: 00 hr 01 min 24 sec)
Warmup complete CPU 0 instructions: 25000002 cycles: 6255966 cumulative IPC: 3.996 (Simulation time: 00 hr 01 min 24 sec)
Heartbeat CPU 0 instructions: 30000002 cycles: 8047754 heartbeat IPC: 3.286 cumulative IPC: 2.791 (Simulation time: 00 hr 01 min 48 sec)
Heartbeat CPU 0 instructions: 40000001 cycles: 11733237 heartbeat IPC: 2.713 cumulative IPC: 2.739 (Simulation time: 00 hr 02 min 34 sec)
Heartbeat CPU 0 instructions: 50000000 cycles: 18937934 heartbeat IPC: 1.388 cumulative IPC: 1.971 (Simulation time: 00 hr 03 min 39 sec)
Simulation finished CPU 0 instructions: 25000002 cycles: 12681970 cumulative IPC: 1.971 (Simulation time: 00 hr 03 min 39 sec)
Simulation complete CPU 0 instructions: 25000002 cycles: 12681970 cumulative IPC: 1.971 (Simulation time: 00 hr 03 min 39 sec)

ChampSim completed all CPUs

=== Simulation ===
CPU 0 runs ./traces/tonto_422B.trace.xz
Region of Interest Statistics

CPU 0 cumulative IPC: 1.971 instructions: 25000002 cycles: 12681970
CPU 0 Branch Prediction Accuracy: 94.53% MPKI: 6.23 Average ROB Occupancy at Mispredict: 68.14
Branch type MPKI
BRANCH_DIRECT_JUMP: 0.0016
BRANCH_INDIRECT: 0.0002
BRANCH_CONDITIONAL: 5.18
BRANCH_DIRECT_CALL: 0.00444
BRANCH_INDIRECT_CALL: 0
BRANCH_RETURN: 1.04

LLC TOTAL        ACCESS:     142051 HIT:      88287 MISS:      53764
LLC LOAD         ACCESS:       2840 HIT:       1764 MISS:       1076
LLC RFO          ACCESS:      53878 HIT:      14266 MISS:      39612
LLC PREFETCH     ACCESS:      31238 HIT:      25769 MISS:       5469
LLC WRITE        ACCESS:      54022 HIT:      46472 MISS:       7550
LLC TRANSLATION  ACCESS:         73 HIT:         16 MISS:         57
LLC PREFETCH REQUESTED:          0 ISSUED:          0 USEFUL:          0 USELESS:          0
LLC AVERAGE MISS LATENCY: 996.3 cycles
cpu0_DTLB TOTAL        ACCESS:    3636758 HIT:    3619863 MISS:      16895
cpu0_DTLB LOAD         ACCESS:    3636758 HIT:    3619863 MISS:      16895
cpu0_DTLB RFO          ACCESS:          0 HIT:          0 MISS:          0
cpu0_DTLB PREFETCH     ACCESS:          0 HIT:          0 MISS:          0
cpu0_DTLB WRITE        ACCESS:          0 HIT:          0 MISS:          0
cpu0_DTLB TRANSLATION  ACCESS:          0 HIT:          0 MISS:          0
cpu0_DTLB PREFETCH REQUESTED:          0 ISSUED:          0 USEFUL:          0 USELESS:          0
cpu0_DTLB AVERAGE MISS LATENCY: 10.16 cycles
cpu0_ITLB TOTAL        ACCESS:    1281837 HIT:    1281755 MISS:         82
cpu0_ITLB LOAD         ACCESS:    1281837 HIT:    1281755 MISS:         82
cpu0_ITLB RFO          ACCESS:          0 HIT:          0 MISS:          0
cpu0_ITLB PREFETCH     ACCESS:          0 HIT:          0 MISS:          0
cpu0_ITLB WRITE        ACCESS:          0 HIT:          0 MISS:          0
cpu0_ITLB TRANSLATION  ACCESS:          0 HIT:          0 MISS:          0
cpu0_ITLB PREFETCH REQUESTED:          0 ISSUED:          0 USEFUL:          0 USELESS:          0
cpu0_ITLB AVERAGE MISS LATENCY: 128.5 cycles
cpu0_L1D TOTAL        ACCESS:    6975045 HIT:    6389065 MISS:     585980
cpu0_L1D LOAD         ACCESS:    2424881 HIT:    2361906 MISS:      62975
cpu0_L1D RFO          ACCESS:          0 HIT:          0 MISS:          0
cpu0_L1D PREFETCH     ACCESS:    2268865 HIT:    2138992 MISS:     129873
cpu0_L1D WRITE        ACCESS:    2280637 HIT:    1887611 MISS:     393026
cpu0_L1D TRANSLATION  ACCESS:        662 HIT:        556 MISS:        106
cpu0_L1D PREFETCH REQUESTED:    2746026 ISSUED:    2268867 USEFUL:      49979 USELESS:       5082
cpu0_L1D AVERAGE MISS LATENCY: 82.99 cycles
cpu0_L1I TOTAL        ACCESS:    1563802 HIT:    1562814 MISS:        988
cpu0_L1I LOAD         ACCESS:    1563802 HIT:    1562814 MISS:        988
cpu0_L1I RFO          ACCESS:          0 HIT:          0 MISS:          0
cpu0_L1I PREFETCH     ACCESS:          0 HIT:          0 MISS:          0
cpu0_L1I WRITE        ACCESS:          0 HIT:          0 MISS:          0
cpu0_L1I TRANSLATION  ACCESS:          0 HIT:          0 MISS:          0
cpu0_L1I PREFETCH REQUESTED:          0 ISSUED:          0 USEFUL:          0 USELESS:          0
cpu0_L1I AVERAGE MISS LATENCY: 228.5 cycles
cpu0_L2C TOTAL        ACCESS:     267072 HIT:     168564 MISS:      98508
cpu0_L2C LOAD         ACCESS:      21361 HIT:      16875 MISS:       4486
cpu0_L2C RFO          ACCESS:      57902 HIT:       4024 MISS:      53878
cpu0_L2C PREFETCH     ACCESS:     120131 HIT:      80078 MISS:      40053
cpu0_L2C WRITE        ACCESS:      67573 HIT:      67555 MISS:         18
cpu0_L2C TRANSLATION  ACCESS:        105 HIT:         32 MISS:         73
cpu0_L2C PREFETCH REQUESTED:      65160 ISSUED:      65160 USEFUL:       6941 USELESS:        689
cpu0_L2C AVERAGE MISS LATENCY: 560.3 cycles
cpu0_STLB TOTAL        ACCESS:       9226 HIT:       8566 MISS:        660
cpu0_STLB LOAD         ACCESS:       9226 HIT:       8566 MISS:        660
cpu0_STLB RFO          ACCESS:          0 HIT:          0 MISS:          0
cpu0_STLB PREFETCH     ACCESS:          0 HIT:          0 MISS:          0
cpu0_STLB WRITE        ACCESS:          0 HIT:          0 MISS:          0
cpu0_STLB TRANSLATION  ACCESS:          0 HIT:          0 MISS:          0
cpu0_STLB PREFETCH REQUESTED:          0 ISSUED:          0 USEFUL:          0 USELESS:          0
cpu0_STLB AVERAGE MISS LATENCY: 254.1 cycles

DRAM Statistics

Channel 0 RQ ROW_BUFFER_HIT:      23778
  ROW_BUFFER_MISS:      22309
 AVG DBUS CONGESTED CYCLE: 3.963
WQ ROW_BUFFER_HIT: Channel 0 
  ROW_BUFFER_MISS:       4169
  FULL:      24165
OPTgen accesses: 367
OPTgen hits: 292
OPTgen hit rate: 79.5641


