WARNING: physical memory size is smaller than virtual memory size.

*** ChampSim Multicore Out-of-Order Simulator ***
Warmup Instructions: 25000000
Simulation Instructions: 25000000
Number of CPUs: 1
Page size: 4096

Initialize Hawkeye state
Off-chip DRAM Size: 4 GiB Channels: 1 Width: 64-bit Data Race: 800 MT/s
Heartbeat CPU 0 instructions: 10000003 cycles: 2561004 heartbeat IPC: 3.905 cumulative IPC: 3.905 (Simulation time: 00 hr 00 min 39 sec)
Heartbeat CPU 0 instructions: 20000003 cycles: 5061004 heartbeat IPC: 4 cumulative IPC: 3.952 (Simulation time: 00 hr 01 min 16 sec)
Warmup finished CPU 0 instructions: 25000001 cycles: 6311030 cumulative IPC: 3.961 (Simulation time: 00 hr 01 min 35 sec)
Warmup complete CPU 0 instructions: 25000001 cycles: 6311030 cumulative IPC: 3.961 (Simulation time: 00 hr 01 min 35 sec)
Heartbeat CPU 0 instructions: 30000002 cycles: 16082233 heartbeat IPC: 0.9073 cumulative IPC: 0.5117 (Simulation time: 00 hr 03 min 00 sec)
Heartbeat CPU 0 instructions: 40000003 cycles: 36939325 heartbeat IPC: 0.4795 cumulative IPC: 0.4897 (Simulation time: 00 hr 05 min 43 sec)
Heartbeat CPU 0 instructions: 50000000 cycles: 44203935 heartbeat IPC: 1.377 cumulative IPC: 0.6598 (Simulation time: 00 hr 06 min 37 sec)
Simulation finished CPU 0 instructions: 25000003 cycles: 37892907 cumulative IPC: 0.6598 (Simulation time: 00 hr 06 min 37 sec)
Simulation complete CPU 0 instructions: 25000003 cycles: 37892907 cumulative IPC: 0.6598 (Simulation time: 00 hr 06 min 37 sec)

ChampSim completed all CPUs

=== Simulation ===
CPU 0 runs ./traces/wrf_1228B.trace.xz
Region of Interest Statistics

CPU 0 cumulative IPC: 0.6598 instructions: 25000003 cycles: 37892907
CPU 0 Branch Prediction Accuracy: 94.36% MPKI: 2.773 Average ROB Occupancy at Mispredict: 293.6
Branch type MPKI
BRANCH_DIRECT_JUMP: 0.00028
BRANCH_INDIRECT: 0
BRANCH_CONDITIONAL: 2.77
BRANCH_DIRECT_CALL: 0.00032
BRANCH_INDIRECT_CALL: 0
BRANCH_RETURN: 0.0004

LLC TOTAL        ACCESS:     689396 HIT:     171899 MISS:     517497
LLC LOAD         ACCESS:      81154 HIT:      13369 MISS:      67785
LLC RFO          ACCESS:     114979 HIT:      19247 MISS:      95732
LLC PREFETCH     ACCESS:     281936 HIT:      30135 MISS:     251801
LLC WRITE        ACCESS:     211050 HIT:     109104 MISS:     101946
LLC TRANSLATION  ACCESS:        277 HIT:         44 MISS:        233
LLC PREFETCH REQUESTED:          0 ISSUED:          0 USEFUL:          0 USELESS:          0
LLC AVERAGE MISS LATENCY: 684.2 cycles
cpu0_DTLB TOTAL        ACCESS:    6386595 HIT:    6352097 MISS:      34498
cpu0_DTLB LOAD         ACCESS:    6386595 HIT:    6352097 MISS:      34498
cpu0_DTLB RFO          ACCESS:          0 HIT:          0 MISS:          0
cpu0_DTLB PREFETCH     ACCESS:          0 HIT:          0 MISS:          0
cpu0_DTLB WRITE        ACCESS:          0 HIT:          0 MISS:          0
cpu0_DTLB TRANSLATION  ACCESS:          0 HIT:          0 MISS:          0
cpu0_DTLB PREFETCH REQUESTED:          0 ISSUED:          0 USEFUL:          0 USELESS:          0
cpu0_DTLB AVERAGE MISS LATENCY: 14.66 cycles
cpu0_ITLB TOTAL        ACCESS:       4525 HIT:       4517 MISS:          8
cpu0_ITLB LOAD         ACCESS:       4525 HIT:       4517 MISS:          8
cpu0_ITLB RFO          ACCESS:          0 HIT:          0 MISS:          0
cpu0_ITLB PREFETCH     ACCESS:          0 HIT:          0 MISS:          0
cpu0_ITLB WRITE        ACCESS:          0 HIT:          0 MISS:          0
cpu0_ITLB TRANSLATION  ACCESS:          0 HIT:          0 MISS:          0
cpu0_ITLB PREFETCH REQUESTED:          0 ISSUED:          0 USEFUL:          0 USELESS:          0
cpu0_ITLB AVERAGE MISS LATENCY: 94.5 cycles
cpu0_L1D TOTAL        ACCESS:   11845916 HIT:    7497288 MISS:    4348628
cpu0_L1D LOAD         ACCESS:    6500226 HIT:    4447263 MISS:    2052963
cpu0_L1D RFO          ACCESS:          0 HIT:          0 MISS:          0
cpu0_L1D PREFETCH     ACCESS:    3501990 HIT:    1945477 MISS:    1556513
cpu0_L1D WRITE        ACCESS:    1839332 HIT:    1102107 MISS:     737225
cpu0_L1D TRANSLATION  ACCESS:       4368 HIT:       2441 MISS:       1927
cpu0_L1D PREFETCH REQUESTED:    6779236 ISSUED:    3501981 USEFUL:     397951 USELESS:       9794
cpu0_L1D AVERAGE MISS LATENCY: 63.46 cycles
cpu0_L1I TOTAL        ACCESS:       5076 HIT:       4417 MISS:        659
cpu0_L1I LOAD         ACCESS:       5076 HIT:       4417 MISS:        659
cpu0_L1I RFO          ACCESS:          0 HIT:          0 MISS:          0
cpu0_L1I PREFETCH     ACCESS:          0 HIT:          0 MISS:          0
cpu0_L1I WRITE        ACCESS:          0 HIT:          0 MISS:          0
cpu0_L1I TRANSLATION  ACCESS:          0 HIT:          0 MISS:          0
cpu0_L1I PREFETCH REQUESTED:          0 ISSUED:          0 USEFUL:          0 USELESS:          0
cpu0_L1I AVERAGE MISS LATENCY: 383.9 cycles
cpu0_L2C TOTAL        ACCESS:    1196782 HIT:     622022 MISS:     574760
cpu0_L2C LOAD         ACCESS:     191223 HIT:      90654 MISS:     100569
cpu0_L2C RFO          ACCESS:     160942 HIT:      45960 MISS:     114982
cpu0_L2C PREFETCH     ACCESS:     566259 HIT:     207370 MISS:     358889
cpu0_L2C WRITE        ACCESS:     276432 HIT:     276389 MISS:         43
cpu0_L2C TRANSLATION  ACCESS:       1926 HIT:       1649 MISS:        277
cpu0_L2C PREFETCH REQUESTED:     158515 ISSUED:     158515 USEFUL:      42959 USELESS:      20629
cpu0_L2C AVERAGE MISS LATENCY: 624.7 cycles
cpu0_STLB TOTAL        ACCESS:       8008 HIT:       3646 MISS:       4362
cpu0_STLB LOAD         ACCESS:       8008 HIT:       3646 MISS:       4362
cpu0_STLB RFO          ACCESS:          0 HIT:          0 MISS:          0
cpu0_STLB PREFETCH     ACCESS:          0 HIT:          0 MISS:          0
cpu0_STLB WRITE        ACCESS:          0 HIT:          0 MISS:          0
cpu0_STLB TRANSLATION  ACCESS:          0 HIT:          0 MISS:          0
cpu0_STLB PREFETCH REQUESTED:          0 ISSUED:          0 USEFUL:          0 USELESS:          0
cpu0_STLB AVERAGE MISS LATENCY: 182.2 cycles

DRAM Statistics

Channel 0 RQ ROW_BUFFER_HIT:      98191
  ROW_BUFFER_MISS:     313003
 AVG DBUS CONGESTED CYCLE: 3.93
WQ ROW_BUFFER_HIT: Channel 0 
  ROW_BUFFER_MISS:      21503
  FULL:     137473
OPTgen accesses: 1440
OPTgen hits: 616
OPTgen hit rate: 42.7778


