WARNING: physical memory size is smaller than virtual memory size.

*** ChampSim Multicore Out-of-Order Simulator ***
Warmup Instructions: 25000000
Simulation Instructions: 25000000
Number of CPUs: 1
Page size: 4096

Initialize Hawkeye state
Off-chip DRAM Size: 4 GiB Channels: 1 Width: 64-bit Data Race: 800 MT/s
Heartbeat CPU 0 instructions: 10000001 cycles: 2516710 heartbeat IPC: 3.973 cumulative IPC: 3.973 (Simulation time: 00 hr 00 min 37 sec)
Heartbeat CPU 0 instructions: 20000000 cycles: 5149232 heartbeat IPC: 3.799 cumulative IPC: 3.884 (Simulation time: 00 hr 01 min 16 sec)
Warmup finished CPU 0 instructions: 25000003 cycles: 6553285 cumulative IPC: 3.815 (Simulation time: 00 hr 01 min 36 sec)
Warmup complete CPU 0 instructions: 25000003 cycles: 6553285 cumulative IPC: 3.815 (Simulation time: 00 hr 01 min 36 sec)
Heartbeat CPU 0 instructions: 30000003 cycles: 10121144 heartbeat IPC: 2.011 cumulative IPC: 1.401 (Simulation time: 00 hr 02 min 13 sec)
Heartbeat CPU 0 instructions: 40000001 cycles: 17461190 heartbeat IPC: 1.362 cumulative IPC: 1.375 (Simulation time: 00 hr 03 min 27 sec)
Heartbeat CPU 0 instructions: 50000000 cycles: 24816998 heartbeat IPC: 1.359 cumulative IPC: 1.369 (Simulation time: 00 hr 04 min 34 sec)
Simulation finished CPU 0 instructions: 25000001 cycles: 18263715 cumulative IPC: 1.369 (Simulation time: 00 hr 04 min 34 sec)
Simulation complete CPU 0 instructions: 25000001 cycles: 18263715 cumulative IPC: 1.369 (Simulation time: 00 hr 04 min 34 sec)

ChampSim completed all CPUs

=== Simulation ===
CPU 0 runs ./traces/zeusmp_100B.trace.xz
Region of Interest Statistics

CPU 0 cumulative IPC: 1.369 instructions: 25000001 cycles: 18263715
CPU 0 Branch Prediction Accuracy: 99.35% MPKI: 0.3559 Average ROB Occupancy at Mispredict: 298.1
Branch type MPKI
BRANCH_DIRECT_JUMP: 0
BRANCH_INDIRECT: 0
BRANCH_CONDITIONAL: 0.356
BRANCH_DIRECT_CALL: 0
BRANCH_INDIRECT_CALL: 0
BRANCH_RETURN: 0

LLC TOTAL        ACCESS:     204777 HIT:      11309 MISS:     193468
LLC LOAD         ACCESS:      41931 HIT:       2236 MISS:      39695
LLC RFO          ACCESS:      49536 HIT:          0 MISS:      49536
LLC PREFETCH     ACCESS:      60925 HIT:       1403 MISS:      59522
LLC WRITE        ACCESS:      49573 HIT:       7635 MISS:      41938
LLC TRANSLATION  ACCESS:       2812 HIT:         35 MISS:       2777
LLC PREFETCH REQUESTED:          0 ISSUED:          0 USEFUL:          0 USELESS:          0
LLC AVERAGE MISS LATENCY: 828.5 cycles
cpu0_DTLB TOTAL        ACCESS:    4665432 HIT:    3527903 MISS:    1137529
cpu0_DTLB LOAD         ACCESS:    4665432 HIT:    3527903 MISS:    1137529
cpu0_DTLB RFO          ACCESS:          0 HIT:          0 MISS:          0
cpu0_DTLB PREFETCH     ACCESS:          0 HIT:          0 MISS:          0
cpu0_DTLB WRITE        ACCESS:          0 HIT:          0 MISS:          0
cpu0_DTLB TRANSLATION  ACCESS:          0 HIT:          0 MISS:          0
cpu0_DTLB PREFETCH REQUESTED:          0 ISSUED:          0 USEFUL:          0 USELESS:          0
cpu0_DTLB AVERAGE MISS LATENCY: 10.67 cycles
cpu0_ITLB TOTAL        ACCESS:          0 HIT:          0 MISS:          0
cpu0_ITLB LOAD         ACCESS:          0 HIT:          0 MISS:          0
cpu0_ITLB RFO          ACCESS:          0 HIT:          0 MISS:          0
cpu0_ITLB PREFETCH     ACCESS:          0 HIT:          0 MISS:          0
cpu0_ITLB WRITE        ACCESS:          0 HIT:          0 MISS:          0
cpu0_ITLB TRANSLATION  ACCESS:          0 HIT:          0 MISS:          0
cpu0_ITLB PREFETCH REQUESTED:          0 ISSUED:          0 USEFUL:          0 USELESS:          0
cpu0_ITLB AVERAGE MISS LATENCY: -nan cycles
cpu0_L1D TOTAL        ACCESS:    7321680 HIT:    5409398 MISS:    1912282
cpu0_L1D LOAD         ACCESS:    3737399 HIT:    2874263 MISS:     863136
cpu0_L1D RFO          ACCESS:          0 HIT:          0 MISS:          0
cpu0_L1D PREFETCH     ACCESS:    1817445 HIT:    1468979 MISS:     348466
cpu0_L1D WRITE        ACCESS:    1763656 HIT:    1066156 MISS:     697500
cpu0_L1D TRANSLATION  ACCESS:       3180 HIT:          0 MISS:       3180
cpu0_L1D PREFETCH REQUESTED:    7313908 ISSUED:    1817445 USEFUL:      61770 USELESS:     188568
cpu0_L1D AVERAGE MISS LATENCY: 94.68 cycles
cpu0_L1I TOTAL        ACCESS:          0 HIT:          0 MISS:          0
cpu0_L1I LOAD         ACCESS:          0 HIT:          0 MISS:          0
cpu0_L1I RFO          ACCESS:          0 HIT:          0 MISS:          0
cpu0_L1I PREFETCH     ACCESS:          0 HIT:          0 MISS:          0
cpu0_L1I WRITE        ACCESS:          0 HIT:          0 MISS:          0
cpu0_L1I TRANSLATION  ACCESS:          0 HIT:          0 MISS:          0
cpu0_L1I PREFETCH REQUESTED:          0 ISSUED:          0 USEFUL:          0 USELESS:          0
cpu0_L1I AVERAGE MISS LATENCY: -nan cycles
cpu0_L2C TOTAL        ACCESS:    2297068 HIT:    2141863 MISS:     155205
cpu0_L2C LOAD         ACCESS:     844502 HIT:     802571 MISS:      41931
cpu0_L2C RFO          ACCESS:     545066 HIT:     495530 MISS:      49536
cpu0_L2C PREFETCH     ACCESS:     339173 HIT:     278247 MISS:      60926
cpu0_L2C WRITE        ACCESS:     565147 HIT:     565147 MISS:          0
cpu0_L2C TRANSLATION  ACCESS:       3180 HIT:        368 MISS:       2812
cpu0_L2C PREFETCH REQUESTED:      88907 ISSUED:      88746 USEFUL:          0 USELESS:         74
cpu0_L2C AVERAGE MISS LATENCY: 1054 cycles
cpu0_STLB TOTAL        ACCESS:    1052011 HIT:    1050049 MISS:       1962
cpu0_STLB LOAD         ACCESS:    1052011 HIT:    1050049 MISS:       1962
cpu0_STLB RFO          ACCESS:          0 HIT:          0 MISS:          0
cpu0_STLB PREFETCH     ACCESS:          0 HIT:          0 MISS:          0
cpu0_STLB WRITE        ACCESS:          0 HIT:          0 MISS:          0
cpu0_STLB TRANSLATION  ACCESS:          0 HIT:          0 MISS:          0
cpu0_STLB PREFETCH REQUESTED:          0 ISSUED:          0 USEFUL:          0 USELESS:          0
cpu0_STLB AVERAGE MISS LATENCY: 2009 cycles

DRAM Statistics

Channel 0 RQ ROW_BUFFER_HIT:      27998
  ROW_BUFFER_MISS:     123521
 AVG DBUS CONGESTED CYCLE: 3.988
WQ ROW_BUFFER_HIT: Channel 0 
  ROW_BUFFER_MISS:       1364
  FULL:      44371
OPTgen accesses: 792
OPTgen hits: 83
OPTgen hit rate: 10.4798


