WARNING: physical memory size is smaller than virtual memory size.

*** ChampSim Multicore Out-of-Order Simulator ***
Warmup Instructions: 25000000
Simulation Instructions: 25000000
Number of CPUs: 1
Page size: 4096

Off-chip DRAM Size: 4 GiB Channels: 1 Width: 64-bit Data Race: 800 MT/s
Heartbeat CPU 0 instructions: 10000003 cycles: 3086114 heartbeat IPC: 3.24 cumulative IPC: 3.24 (Simulation time: 00 hr 00 min 39 sec)
Heartbeat CPU 0 instructions: 20000002 cycles: 5589877 heartbeat IPC: 3.994 cumulative IPC: 3.578 (Simulation time: 00 hr 01 min 19 sec)
Warmup finished CPU 0 instructions: 25000001 cycles: 6841409 cumulative IPC: 3.654 (Simulation time: 00 hr 01 min 44 sec)
Warmup complete CPU 0 instructions: 25000001 cycles: 6841409 cumulative IPC: 3.654 (Simulation time: 00 hr 01 min 44 sec)
Heartbeat CPU 0 instructions: 30000000 cycles: 53315688 heartbeat IPC: 0.2095 cumulative IPC: 0.1076 (Simulation time: 00 hr 06 min 16 sec)
Heartbeat CPU 0 instructions: 40000001 cycles: 147300131 heartbeat IPC: 0.1064 cumulative IPC: 0.1068 (Simulation time: 00 hr 13 min 44 sec)
Heartbeat CPU 0 instructions: 50000003 cycles: 241638279 heartbeat IPC: 0.106 cumulative IPC: 0.1065 (Simulation time: 00 hr 18 min 09 sec)
Simulation finished CPU 0 instructions: 25000002 cycles: 234796871 cumulative IPC: 0.1065 (Simulation time: 00 hr 18 min 09 sec)
Simulation complete CPU 0 instructions: 25000002 cycles: 234796871 cumulative IPC: 0.1065 (Simulation time: 00 hr 18 min 09 sec)

ChampSim completed all CPUs

=== Simulation ===
CPU 0 runs ./gap/bc-0.trace.gz
Region of Interest Statistics

CPU 0 cumulative IPC: 0.1065 instructions: 25000002 cycles: 234796871
CPU 0 Branch Prediction Accuracy: 85.55% MPKI: 27.28 Average ROB Occupancy at Mispredict: 31.59
Branch type MPKI
BRANCH_DIRECT_JUMP: 0
BRANCH_INDIRECT: 0
BRANCH_CONDITIONAL: 27.3
BRANCH_DIRECT_CALL: 0
BRANCH_INDIRECT_CALL: 0
BRANCH_RETURN: 0

LLC TOTAL        ACCESS:    4698605 HIT:    2065949 MISS:    2632656
LLC LOAD         ACCESS:    1836888 HIT:     666641 MISS:    1170247
LLC RFO          ACCESS:      10999 HIT:        184 MISS:      10815
LLC PREFETCH     ACCESS:    2101021 HIT:     660439 MISS:    1440582
LLC WRITE        ACCESS:     647923 HIT:     642748 MISS:       5175
LLC TRANSLATION  ACCESS:     101774 HIT:      95937 MISS:       5837
LLC PREFETCH REQUESTED:          0 ISSUED:          0 USEFUL:          0 USELESS:          0
LLC AVERAGE MISS LATENCY: 468.3 cycles
cpu0_DTLB TOTAL        ACCESS:    6836299 HIT:    5867507 MISS:     968792
cpu0_DTLB LOAD         ACCESS:    6836299 HIT:    5867507 MISS:     968792
cpu0_DTLB RFO          ACCESS:          0 HIT:          0 MISS:          0
cpu0_DTLB PREFETCH     ACCESS:          0 HIT:          0 MISS:          0
cpu0_DTLB WRITE        ACCESS:          0 HIT:          0 MISS:          0
cpu0_DTLB TRANSLATION  ACCESS:          0 HIT:          0 MISS:          0
cpu0_DTLB PREFETCH REQUESTED:          0 ISSUED:          0 USEFUL:          0 USELESS:          0
cpu0_DTLB AVERAGE MISS LATENCY: 15.78 cycles
cpu0_ITLB TOTAL        ACCESS:          0 HIT:          0 MISS:          0
cpu0_ITLB LOAD         ACCESS:          0 HIT:          0 MISS:          0
cpu0_ITLB RFO          ACCESS:          0 HIT:          0 MISS:          0
cpu0_ITLB PREFETCH     ACCESS:          0 HIT:          0 MISS:          0
cpu0_ITLB WRITE        ACCESS:          0 HIT:          0 MISS:          0
cpu0_ITLB TRANSLATION  ACCESS:          0 HIT:          0 MISS:          0
cpu0_ITLB PREFETCH REQUESTED:          0 ISSUED:          0 USEFUL:          0 USELESS:          0
cpu0_ITLB AVERAGE MISS LATENCY: -nan cycles
cpu0_L1D TOTAL        ACCESS:   14689788 HIT:    9865385 MISS:    4824403
cpu0_L1D LOAD         ACCESS:    6531203 HIT:    4527184 MISS:    2004019
cpu0_L1D RFO          ACCESS:          0 HIT:          0 MISS:          0
cpu0_L1D PREFETCH     ACCESS:    6503807 HIT:    3934373 MISS:    2569434
cpu0_L1D WRITE        ACCESS:    1318115 HIT:    1286370 MISS:      31745
cpu0_L1D TRANSLATION  ACCESS:     336663 HIT:     117458 MISS:     219205
cpu0_L1D PREFETCH REQUESTED:    7174332 ISSUED:    6503799 USEFUL:     182937 USELESS:    1794658
cpu0_L1D AVERAGE MISS LATENCY: 260.4 cycles
cpu0_L1I TOTAL        ACCESS:          0 HIT:          0 MISS:          0
cpu0_L1I LOAD         ACCESS:          0 HIT:          0 MISS:          0
cpu0_L1I RFO          ACCESS:          0 HIT:          0 MISS:          0
cpu0_L1I PREFETCH     ACCESS:          0 HIT:          0 MISS:          0
cpu0_L1I WRITE        ACCESS:          0 HIT:          0 MISS:          0
cpu0_L1I TRANSLATION  ACCESS:          0 HIT:          0 MISS:          0
cpu0_L1I PREFETCH REQUESTED:          0 ISSUED:          0 USEFUL:          0 USELESS:          0
cpu0_L1I AVERAGE MISS LATENCY: -nan cycles
cpu0_L2C TOTAL        ACCESS:    4981725 HIT:     877933 MISS:    4103792
cpu0_L2C LOAD         ACCESS:    1896872 HIT:      50025 MISS:    1846847
cpu0_L2C RFO          ACCESS:      15811 HIT:       4812 MISS:      10999
cpu0_L2C PREFETCH     ACCESS:    2196526 HIT:      53063 MISS:    2143463
cpu0_L2C WRITE        ACCESS:     653695 HIT:     652986 MISS:        709
cpu0_L2C TRANSLATION  ACCESS:     218821 HIT:     117047 MISS:     101774
cpu0_L2C PREFETCH REQUESTED:     218885 ISSUED:     218885 USEFUL:      31392 USELESS:     136484
cpu0_L2C AVERAGE MISS LATENCY: 318.7 cycles
cpu0_STLB TOTAL        ACCESS:     733820 HIT:     397171 MISS:     336649
cpu0_STLB LOAD         ACCESS:     733820 HIT:     397171 MISS:     336649
cpu0_STLB RFO          ACCESS:          0 HIT:          0 MISS:          0
cpu0_STLB PREFETCH     ACCESS:          0 HIT:          0 MISS:          0
cpu0_STLB WRITE        ACCESS:          0 HIT:          0 MISS:          0
cpu0_STLB TRANSLATION  ACCESS:          0 HIT:          0 MISS:          0
cpu0_STLB PREFETCH REQUESTED:          0 ISSUED:          0 USEFUL:          0 USELESS:          0
cpu0_STLB AVERAGE MISS LATENCY: 29.7 cycles

DRAM Statistics

Channel 0 RQ ROW_BUFFER_HIT:     830670
  ROW_BUFFER_MISS:    1784024
 AVG DBUS CONGESTED CYCLE: 3.89
WQ ROW_BUFFER_HIT: Channel 0 
  ROW_BUFFER_MISS:       5818
  FULL:     547564
