WARNING: physical memory size is smaller than virtual memory size.

*** ChampSim Multicore Out-of-Order Simulator ***
Warmup Instructions: 25000000
Simulation Instructions: 25000000
Number of CPUs: 1
Page size: 4096

Off-chip DRAM Size: 4 GiB Channels: 1 Width: 64-bit Data Race: 800 MT/s
Heartbeat CPU 0 instructions: 10000002 cycles: 3086636 heartbeat IPC: 3.24 cumulative IPC: 3.24 (Simulation time: 00 hr 00 min 38 sec)
Heartbeat CPU 0 instructions: 20000002 cycles: 5590394 heartbeat IPC: 3.994 cumulative IPC: 3.578 (Simulation time: 00 hr 01 min 17 sec)
Warmup finished CPU 0 instructions: 25000001 cycles: 6841925 cumulative IPC: 3.654 (Simulation time: 00 hr 01 min 42 sec)
Warmup complete CPU 0 instructions: 25000001 cycles: 6841925 cumulative IPC: 3.654 (Simulation time: 00 hr 01 min 42 sec)
Heartbeat CPU 0 instructions: 30000002 cycles: 48140199 heartbeat IPC: 0.235 cumulative IPC: 0.1211 (Simulation time: 00 hr 05 min 52 sec)
Heartbeat CPU 0 instructions: 40000003 cycles: 129365191 heartbeat IPC: 0.1231 cumulative IPC: 0.1224 (Simulation time: 00 hr 13 min 03 sec)
Heartbeat CPU 0 instructions: 50000000 cycles: 211513580 heartbeat IPC: 0.1217 cumulative IPC: 0.1221 (Simulation time: 00 hr 17 min 17 sec)
Simulation finished CPU 0 instructions: 25000002 cycles: 204671660 cumulative IPC: 0.1221 (Simulation time: 00 hr 17 min 17 sec)
Simulation complete CPU 0 instructions: 25000002 cycles: 204671660 cumulative IPC: 0.1221 (Simulation time: 00 hr 17 min 17 sec)

ChampSim completed all CPUs

=== Simulation ===
CPU 0 runs ./gap/bc-3.trace.gz
Region of Interest Statistics

CPU 0 cumulative IPC: 0.1221 instructions: 25000002 cycles: 204671660
CPU 0 Branch Prediction Accuracy: 90.79% MPKI: 19.67 Average ROB Occupancy at Mispredict: 50.34
Branch type MPKI
BRANCH_DIRECT_JUMP: 0
BRANCH_INDIRECT: 0
BRANCH_CONDITIONAL: 19.7
BRANCH_DIRECT_CALL: 0
BRANCH_INDIRECT_CALL: 0
BRANCH_RETURN: 0

LLC TOTAL        ACCESS:    4610422 HIT:    2305769 MISS:    2304653
LLC LOAD         ACCESS:    1942274 HIT:     889675 MISS:    1052599
LLC RFO          ACCESS:      10753 HIT:        163 MISS:      10590
LLC PREFETCH     ACCESS:    2080205 HIT:     846129 MISS:    1234076
LLC WRITE        ACCESS:     483211 HIT:     480812 MISS:       2399
LLC TRANSLATION  ACCESS:      93979 HIT:      88990 MISS:       4989
LLC PREFETCH REQUESTED:          0 ISSUED:          0 USEFUL:          0 USELESS:          0
LLC AVERAGE MISS LATENCY: 548.5 cycles
cpu0_DTLB TOTAL        ACCESS:    6095503 HIT:    4697143 MISS:    1398360
cpu0_DTLB LOAD         ACCESS:    6095503 HIT:    4697143 MISS:    1398360
cpu0_DTLB RFO          ACCESS:          0 HIT:          0 MISS:          0
cpu0_DTLB PREFETCH     ACCESS:          0 HIT:          0 MISS:          0
cpu0_DTLB WRITE        ACCESS:          0 HIT:          0 MISS:          0
cpu0_DTLB TRANSLATION  ACCESS:          0 HIT:          0 MISS:          0
cpu0_DTLB PREFETCH REQUESTED:          0 ISSUED:          0 USEFUL:          0 USELESS:          0
cpu0_DTLB AVERAGE MISS LATENCY: 11.94 cycles
cpu0_ITLB TOTAL        ACCESS:          0 HIT:          0 MISS:          0
cpu0_ITLB LOAD         ACCESS:          0 HIT:          0 MISS:          0
cpu0_ITLB RFO          ACCESS:          0 HIT:          0 MISS:          0
cpu0_ITLB PREFETCH     ACCESS:          0 HIT:          0 MISS:          0
cpu0_ITLB WRITE        ACCESS:          0 HIT:          0 MISS:          0
cpu0_ITLB TRANSLATION  ACCESS:          0 HIT:          0 MISS:          0
cpu0_ITLB PREFETCH REQUESTED:          0 ISSUED:          0 USEFUL:          0 USELESS:          0
cpu0_ITLB AVERAGE MISS LATENCY: -nan cycles
cpu0_L1D TOTAL        ACCESS:   13441321 HIT:    8036057 MISS:    5405264
cpu0_L1D LOAD         ACCESS:    5940450 HIT:    3845153 MISS:    2095297
cpu0_L1D RFO          ACCESS:          0 HIT:          0 MISS:          0
cpu0_L1D PREFETCH     ACCESS:    6249130 HIT:    3182539 MISS:    3066591
cpu0_L1D WRITE        ACCESS:     964654 HIT:     932696 MISS:      31958
cpu0_L1D TRANSLATION  ACCESS:     287087 HIT:      75669 MISS:     211418
cpu0_L1D PREFETCH REQUESTED:    8041820 ISSUED:    6249129 USEFUL:     139781 USELESS:    1916931
cpu0_L1D AVERAGE MISS LATENCY: 247.3 cycles
cpu0_L1I TOTAL        ACCESS:          0 HIT:          0 MISS:          0
cpu0_L1I LOAD         ACCESS:          0 HIT:          0 MISS:          0
cpu0_L1I RFO          ACCESS:          0 HIT:          0 MISS:          0
cpu0_L1I PREFETCH     ACCESS:          0 HIT:          0 MISS:          0
cpu0_L1I WRITE        ACCESS:          0 HIT:          0 MISS:          0
cpu0_L1I TRANSLATION  ACCESS:          0 HIT:          0 MISS:          0
cpu0_L1I PREFETCH REQUESTED:          0 ISSUED:          0 USEFUL:          0 USELESS:          0
cpu0_L1I AVERAGE MISS LATENCY: -nan cycles
cpu0_L2C TOTAL        ACCESS:    4933432 HIT:     783221 MISS:    4150211
cpu0_L2C LOAD         ACCESS:    2033715 HIT:      88958 MISS:    1944757
cpu0_L2C RFO          ACCESS:      15979 HIT:       5226 MISS:      10753
cpu0_L2C PREFETCH     ACCESS:    2183383 HIT:      83256 MISS:    2100127
cpu0_L2C WRITE        ACCESS:     489276 HIT:     488681 MISS:        595
cpu0_L2C TRANSLATION  ACCESS:     211079 HIT:     117100 MISS:      93979
cpu0_L2C PREFETCH REQUESTED:     126634 ISSUED:     126634 USEFUL:       8238 USELESS:      79277
cpu0_L2C AVERAGE MISS LATENCY: 322.9 cycles
cpu0_STLB TOTAL        ACCESS:     997937 HIT:     710860 MISS:     287077
cpu0_STLB LOAD         ACCESS:     997937 HIT:     710860 MISS:     287077
cpu0_STLB RFO          ACCESS:          0 HIT:          0 MISS:          0
cpu0_STLB PREFETCH     ACCESS:          0 HIT:          0 MISS:          0
cpu0_STLB WRITE        ACCESS:          0 HIT:          0 MISS:          0
cpu0_STLB TRANSLATION  ACCESS:          0 HIT:          0 MISS:          0
cpu0_STLB PREFETCH REQUESTED:          0 ISSUED:          0 USEFUL:          0 USELESS:          0
cpu0_STLB AVERAGE MISS LATENCY: 33.87 cycles

DRAM Statistics

Channel 0 RQ ROW_BUFFER_HIT:     670079
  ROW_BUFFER_MISS:    1619736
 AVG DBUS CONGESTED CYCLE: 3.898
WQ ROW_BUFFER_HIT: Channel 0 
  ROW_BUFFER_MISS:       4580
  FULL:     424121
