WARNING: physical memory size is smaller than virtual memory size.

*** ChampSim Multicore Out-of-Order Simulator ***
Warmup Instructions: 25000000
Simulation Instructions: 25000000
Number of CPUs: 1
Page size: 4096

Off-chip DRAM Size: 4 GiB Channels: 1 Width: 64-bit Data Race: 800 MT/s
Heartbeat CPU 0 instructions: 10000002 cycles: 2500131 heartbeat IPC: 4 cumulative IPC: 4 (Simulation time: 00 hr 00 min 30 sec)
Heartbeat CPU 0 instructions: 20000003 cycles: 5014706 heartbeat IPC: 3.977 cumulative IPC: 3.988 (Simulation time: 00 hr 01 min 07 sec)
Warmup finished CPU 0 instructions: 25000003 cycles: 6264707 cumulative IPC: 3.991 (Simulation time: 00 hr 01 min 29 sec)
Warmup complete CPU 0 instructions: 25000003 cycles: 6264707 cumulative IPC: 3.991 (Simulation time: 00 hr 01 min 29 sec)
Heartbeat CPU 0 instructions: 30000000 cycles: 21315942 heartbeat IPC: 0.6135 cumulative IPC: 0.3322 (Simulation time: 00 hr 03 min 00 sec)
Heartbeat CPU 0 instructions: 40000000 cycles: 53299270 heartbeat IPC: 0.3127 cumulative IPC: 0.3189 (Simulation time: 00 hr 06 min 21 sec)
Heartbeat CPU 0 instructions: 50000001 cycles: 92854282 heartbeat IPC: 0.2528 cumulative IPC: 0.2887 (Simulation time: 00 hr 10 min 25 sec)
Simulation finished CPU 0 instructions: 25000001 cycles: 86589577 cumulative IPC: 0.2887 (Simulation time: 00 hr 10 min 25 sec)
Simulation complete CPU 0 instructions: 25000001 cycles: 86589577 cumulative IPC: 0.2887 (Simulation time: 00 hr 10 min 25 sec)

ChampSim completed all CPUs

=== Simulation ===
CPU 0 runs ./gap/bfs-14.trace.gz
Region of Interest Statistics

CPU 0 cumulative IPC: 0.2887 instructions: 25000001 cycles: 86589577
CPU 0 Branch Prediction Accuracy: 75.19% MPKI: 50.74 Average ROB Occupancy at Mispredict: 5.167
Branch type MPKI
BRANCH_DIRECT_JUMP: 4e-05
BRANCH_INDIRECT: 0
BRANCH_CONDITIONAL: 50.7
BRANCH_DIRECT_CALL: 4e-05
BRANCH_INDIRECT_CALL: 0
BRANCH_RETURN: 0.00012

LLC TOTAL        ACCESS:     932856 HIT:     244633 MISS:     688223
LLC LOAD         ACCESS:     217171 HIT:      74891 MISS:     142280
LLC RFO          ACCESS:       1388 HIT:       1383 MISS:          5
LLC PREFETCH     ACCESS:     614011 HIT:      74697 MISS:     539314
LLC WRITE        ACCESS:      92742 HIT:      91614 MISS:       1128
LLC TRANSLATION  ACCESS:       7544 HIT:       2048 MISS:       5496
LLC PREFETCH REQUESTED:          0 ISSUED:          0 USEFUL:          0 USELESS:          0
LLC AVERAGE MISS LATENCY: 265.6 cycles
cpu0_DTLB TOTAL        ACCESS:    6785655 HIT:    6736893 MISS:      48762
cpu0_DTLB LOAD         ACCESS:    6785655 HIT:    6736893 MISS:      48762
cpu0_DTLB RFO          ACCESS:          0 HIT:          0 MISS:          0
cpu0_DTLB PREFETCH     ACCESS:          0 HIT:          0 MISS:          0
cpu0_DTLB WRITE        ACCESS:          0 HIT:          0 MISS:          0
cpu0_DTLB TRANSLATION  ACCESS:          0 HIT:          0 MISS:          0
cpu0_DTLB PREFETCH REQUESTED:          0 ISSUED:          0 USEFUL:          0 USELESS:          0
cpu0_DTLB AVERAGE MISS LATENCY: 98.61 cycles
cpu0_ITLB TOTAL        ACCESS:          3 HIT:          3 MISS:          0
cpu0_ITLB LOAD         ACCESS:          3 HIT:          3 MISS:          0
cpu0_ITLB RFO          ACCESS:          0 HIT:          0 MISS:          0
cpu0_ITLB PREFETCH     ACCESS:          0 HIT:          0 MISS:          0
cpu0_ITLB WRITE        ACCESS:          0 HIT:          0 MISS:          0
cpu0_ITLB TRANSLATION  ACCESS:          0 HIT:          0 MISS:          0
cpu0_ITLB PREFETCH REQUESTED:          0 ISSUED:          0 USEFUL:          0 USELESS:          0
cpu0_ITLB AVERAGE MISS LATENCY: -nan cycles
cpu0_L1D TOTAL        ACCESS:   13989077 HIT:   10465053 MISS:    3524024
cpu0_L1D LOAD         ACCESS:    6688807 HIT:    5917474 MISS:     771333
cpu0_L1D RFO          ACCESS:          0 HIT:          0 MISS:          0
cpu0_L1D PREFETCH     ACCESS:    6531132 HIT:    3821194 MISS:    2709938
cpu0_L1D WRITE        ACCESS:     731633 HIT:     716020 MISS:      15613
cpu0_L1D TRANSLATION  ACCESS:      37505 HIT:      10365 MISS:      27140
cpu0_L1D PREFETCH REQUESTED:    6688807 ISSUED:    6531125 USEFUL:     442867 USELESS:     495318
cpu0_L1D AVERAGE MISS LATENCY: 53.87 cycles
cpu0_L1I TOTAL        ACCESS:          3 HIT:          2 MISS:          1
cpu0_L1I LOAD         ACCESS:          3 HIT:          2 MISS:          1
cpu0_L1I RFO          ACCESS:          0 HIT:          0 MISS:          0
cpu0_L1I PREFETCH     ACCESS:          0 HIT:          0 MISS:          0
cpu0_L1I WRITE        ACCESS:          0 HIT:          0 MISS:          0
cpu0_L1I TRANSLATION  ACCESS:          0 HIT:          0 MISS:          0
cpu0_L1I PREFETCH REQUESTED:          0 ISSUED:          0 USEFUL:          0 USELESS:          0
cpu0_L1I AVERAGE MISS LATENCY: 677 cycles
cpu0_L2C TOTAL        ACCESS:    1655070 HIT:     812103 MISS:     842967
cpu0_L2C LOAD         ACCESS:     567444 HIT:     349681 MISS:     217763
cpu0_L2C RFO          ACCESS:       3900 HIT:       2512 MISS:       1388
cpu0_L2C PREFETCH     ACCESS:     964057 HIT:     347791 MISS:     616266
cpu0_L2C WRITE        ACCESS:      92529 HIT:      92523 MISS:          6
cpu0_L2C TRANSLATION  ACCESS:      27140 HIT:      19596 MISS:       7544
cpu0_L2C PREFETCH REQUESTED:      26023 ISSUED:      26023 USEFUL:       8463 USELESS:      14742
cpu0_L2C AVERAGE MISS LATENCY: 237.4 cycles
cpu0_STLB TOTAL        ACCESS:      42057 HIT:       4662 MISS:      37395
cpu0_STLB LOAD         ACCESS:      42057 HIT:       4662 MISS:      37395
cpu0_STLB RFO          ACCESS:          0 HIT:          0 MISS:          0
cpu0_STLB PREFETCH     ACCESS:          0 HIT:          0 MISS:          0
cpu0_STLB WRITE        ACCESS:          0 HIT:          0 MISS:          0
cpu0_STLB TRANSLATION  ACCESS:          0 HIT:          0 MISS:          0
cpu0_STLB PREFETCH REQUESTED:          0 ISSUED:          0 USEFUL:          0 USELESS:          0
cpu0_STLB AVERAGE MISS LATENCY: 119.3 cycles

DRAM Statistics

Channel 0 RQ ROW_BUFFER_HIT:     110144
  ROW_BUFFER_MISS:     576946
 AVG DBUS CONGESTED CYCLE: 3.837
WQ ROW_BUFFER_HIT: Channel 0 
  ROW_BUFFER_MISS:       7452
  FULL:      81332
