WARNING: physical memory size is smaller than virtual memory size.

*** ChampSim Multicore Out-of-Order Simulator ***
Warmup Instructions: 25000000
Simulation Instructions: 25000000
Number of CPUs: 1
Page size: 4096

Off-chip DRAM Size: 4 GiB Channels: 1 Width: 64-bit Data Race: 800 MT/s
Heartbeat CPU 0 instructions: 10000002 cycles: 2500151 heartbeat IPC: 4 cumulative IPC: 4 (Simulation time: 00 hr 00 min 29 sec)
Heartbeat CPU 0 instructions: 20000000 cycles: 5014156 heartbeat IPC: 3.978 cumulative IPC: 3.989 (Simulation time: 00 hr 01 min 06 sec)
Warmup finished CPU 0 instructions: 25000000 cycles: 6264157 cumulative IPC: 3.991 (Simulation time: 00 hr 01 min 26 sec)
Warmup complete CPU 0 instructions: 25000000 cycles: 6264157 cumulative IPC: 3.991 (Simulation time: 00 hr 01 min 26 sec)
Heartbeat CPU 0 instructions: 30000000 cycles: 19354152 heartbeat IPC: 0.6974 cumulative IPC: 0.382 (Simulation time: 00 hr 02 min 56 sec)
Heartbeat CPU 0 instructions: 40000002 cycles: 44990785 heartbeat IPC: 0.3901 cumulative IPC: 0.3873 (Simulation time: 00 hr 06 min 01 sec)
Heartbeat CPU 0 instructions: 50000000 cycles: 77925692 heartbeat IPC: 0.3036 cumulative IPC: 0.3489 (Simulation time: 00 hr 09 min 40 sec)
Simulation finished CPU 0 instructions: 25000000 cycles: 71661536 cumulative IPC: 0.3489 (Simulation time: 00 hr 09 min 40 sec)
Simulation complete CPU 0 instructions: 25000000 cycles: 71661536 cumulative IPC: 0.3489 (Simulation time: 00 hr 09 min 40 sec)

ChampSim completed all CPUs

=== Simulation ===
CPU 0 runs ./gap/bfs-3.trace.gz
Region of Interest Statistics

CPU 0 cumulative IPC: 0.3489 instructions: 25000000 cycles: 71661536
CPU 0 Branch Prediction Accuracy: 77.24% MPKI: 44.91 Average ROB Occupancy at Mispredict: 6.036
Branch type MPKI
BRANCH_DIRECT_JUMP: 4e-05
BRANCH_INDIRECT: 0
BRANCH_CONDITIONAL: 44.9
BRANCH_DIRECT_CALL: 4e-05
BRANCH_INDIRECT_CALL: 0
BRANCH_RETURN: 8e-05

LLC TOTAL        ACCESS:     725515 HIT:     156751 MISS:     568764
LLC LOAD         ACCESS:     167574 HIT:      45479 MISS:     122095
LLC RFO          ACCESS:        139 HIT:        137 MISS:          2
LLC PREFETCH     ACCESS:     487213 HIT:      44893 MISS:     442320
LLC WRITE        ACCESS:      64819 HIT:      63942 MISS:        877
LLC TRANSLATION  ACCESS:       5770 HIT:       2300 MISS:       3470
LLC PREFETCH REQUESTED:          0 ISSUED:          0 USEFUL:          0 USELESS:          0
LLC AVERAGE MISS LATENCY: 254.8 cycles
cpu0_DTLB TOTAL        ACCESS:    6481095 HIT:    6434148 MISS:      46947
cpu0_DTLB LOAD         ACCESS:    6481095 HIT:    6434148 MISS:      46947
cpu0_DTLB RFO          ACCESS:          0 HIT:          0 MISS:          0
cpu0_DTLB PREFETCH     ACCESS:          0 HIT:          0 MISS:          0
cpu0_DTLB WRITE        ACCESS:          0 HIT:          0 MISS:          0
cpu0_DTLB TRANSLATION  ACCESS:          0 HIT:          0 MISS:          0
cpu0_DTLB PREFETCH REQUESTED:          0 ISSUED:          0 USEFUL:          0 USELESS:          0
cpu0_DTLB AVERAGE MISS LATENCY: 93.74 cycles
cpu0_ITLB TOTAL        ACCESS:          3 HIT:          3 MISS:          0
cpu0_ITLB LOAD         ACCESS:          3 HIT:          3 MISS:          0
cpu0_ITLB RFO          ACCESS:          0 HIT:          0 MISS:          0
cpu0_ITLB PREFETCH     ACCESS:          0 HIT:          0 MISS:          0
cpu0_ITLB WRITE        ACCESS:          0 HIT:          0 MISS:          0
cpu0_ITLB TRANSLATION  ACCESS:          0 HIT:          0 MISS:          0
cpu0_ITLB PREFETCH REQUESTED:          0 ISSUED:          0 USEFUL:          0 USELESS:          0
cpu0_ITLB AVERAGE MISS LATENCY: -nan cycles
cpu0_L1D TOTAL        ACCESS:   13738358 HIT:    9786791 MISS:    3951567
cpu0_L1D LOAD         ACCESS:    6593902 HIT:    5404244 MISS:    1189658
cpu0_L1D RFO          ACCESS:          0 HIT:          0 MISS:          0
cpu0_L1D PREFETCH     ACCESS:    6460748 HIT:    3726570 MISS:    2734178
cpu0_L1D WRITE        ACCESS:     658579 HIT:     651137 MISS:       7442
cpu0_L1D TRANSLATION  ACCESS:      25129 HIT:       4840 MISS:      20289
cpu0_L1D PREFETCH REQUESTED:    6593903 ISSUED:    6460743 USEFUL:     427342 USELESS:     735471
cpu0_L1D AVERAGE MISS LATENCY: 39.76 cycles
cpu0_L1I TOTAL        ACCESS:          3 HIT:          2 MISS:          1
cpu0_L1I LOAD         ACCESS:          3 HIT:          2 MISS:          1
cpu0_L1I RFO          ACCESS:          0 HIT:          0 MISS:          0
cpu0_L1I PREFETCH     ACCESS:          0 HIT:          0 MISS:          0
cpu0_L1I WRITE        ACCESS:          0 HIT:          0 MISS:          0
cpu0_L1I TRANSLATION  ACCESS:          0 HIT:          0 MISS:          0
cpu0_L1I PREFETCH REQUESTED:          0 ISSUED:          0 USEFUL:          0 USELESS:          0
cpu0_L1I AVERAGE MISS LATENCY: 598 cycles
cpu0_L2C TOTAL        ACCESS:    2157534 HIT:    1494876 MISS:     662658
cpu0_L2C LOAD         ACCESS:     881648 HIT:     713571 MISS:     168077
cpu0_L2C RFO          ACCESS:       1859 HIT:       1720 MISS:        139
cpu0_L2C PREFETCH     ACCESS:    1188785 HIT:     700125 MISS:     488660
cpu0_L2C WRITE        ACCESS:      64953 HIT:      64941 MISS:         12
cpu0_L2C TRANSLATION  ACCESS:      20289 HIT:      14519 MISS:       5770
cpu0_L2C PREFETCH REQUESTED:      25995 ISSUED:      25995 USEFUL:       8530 USELESS:      13211
cpu0_L2C AVERAGE MISS LATENCY: 239.2 cycles
cpu0_STLB TOTAL        ACCESS:      27618 HIT:       2554 MISS:      25064
cpu0_STLB LOAD         ACCESS:      27618 HIT:       2554 MISS:      25064
cpu0_STLB RFO          ACCESS:          0 HIT:          0 MISS:          0
cpu0_STLB PREFETCH     ACCESS:          0 HIT:          0 MISS:          0
cpu0_STLB WRITE        ACCESS:          0 HIT:          0 MISS:          0
cpu0_STLB TRANSLATION  ACCESS:          0 HIT:          0 MISS:          0
cpu0_STLB PREFETCH REQUESTED:          0 ISSUED:          0 USEFUL:          0 USELESS:          0
cpu0_STLB AVERAGE MISS LATENCY: 167.5 cycles

DRAM Statistics

Channel 0 RQ ROW_BUFFER_HIT:      94202
  ROW_BUFFER_MISS:     473678
 AVG DBUS CONGESTED CYCLE: 3.826
WQ ROW_BUFFER_HIT: Channel 0 
  ROW_BUFFER_MISS:       2667
  FULL:      61386
