WARNING: physical memory size is smaller than virtual memory size.

*** ChampSim Multicore Out-of-Order Simulator ***
Warmup Instructions: 25000000
Simulation Instructions: 25000000
Number of CPUs: 1
Page size: 4096

Off-chip DRAM Size: 4 GiB Channels: 1 Width: 64-bit Data Race: 800 MT/s
Heartbeat CPU 0 instructions: 10000002 cycles: 2500132 heartbeat IPC: 4 cumulative IPC: 4 (Simulation time: 00 hr 00 min 31 sec)
Heartbeat CPU 0 instructions: 20000001 cycles: 5016907 heartbeat IPC: 3.973 cumulative IPC: 3.987 (Simulation time: 00 hr 01 min 09 sec)
Warmup finished CPU 0 instructions: 25000001 cycles: 6266908 cumulative IPC: 3.989 (Simulation time: 00 hr 01 min 34 sec)
Warmup complete CPU 0 instructions: 25000001 cycles: 6266908 cumulative IPC: 3.989 (Simulation time: 00 hr 01 min 34 sec)
Heartbeat CPU 0 instructions: 30000002 cycles: 22045515 heartbeat IPC: 0.5872 cumulative IPC: 0.3169 (Simulation time: 00 hr 03 min 01 sec)
Heartbeat CPU 0 instructions: 40000001 cycles: 54430525 heartbeat IPC: 0.3088 cumulative IPC: 0.3114 (Simulation time: 00 hr 06 min 02 sec)
Heartbeat CPU 0 instructions: 50000002 cycles: 77358601 heartbeat IPC: 0.4361 cumulative IPC: 0.3517 (Simulation time: 00 hr 08 min 26 sec)
Simulation finished CPU 0 instructions: 25000001 cycles: 71091694 cumulative IPC: 0.3517 (Simulation time: 00 hr 08 min 26 sec)
Simulation complete CPU 0 instructions: 25000001 cycles: 71091694 cumulative IPC: 0.3517 (Simulation time: 00 hr 08 min 26 sec)

ChampSim completed all CPUs

=== Simulation ===
CPU 0 runs ./gap/bfs-8.trace.gz
Region of Interest Statistics

CPU 0 cumulative IPC: 0.3517 instructions: 25000001 cycles: 71091694
CPU 0 Branch Prediction Accuracy: 81.33% MPKI: 38.48 Average ROB Occupancy at Mispredict: 8.873
Branch type MPKI
BRANCH_DIRECT_JUMP: 8e-05
BRANCH_INDIRECT: 0
BRANCH_CONDITIONAL: 38.5
BRANCH_DIRECT_CALL: 0.00016
BRANCH_INDIRECT_CALL: 0
BRANCH_RETURN: 0.00016

LLC TOTAL        ACCESS:     760152 HIT:     178742 MISS:     581410
LLC LOAD         ACCESS:     165046 HIT:      56719 MISS:     108327
LLC RFO          ACCESS:       1263 HIT:        545 MISS:        718
LLC PREFETCH     ACCESS:     520567 HIT:      54945 MISS:     465622
LLC WRITE        ACCESS:      66305 HIT:      65111 MISS:       1194
LLC TRANSLATION  ACCESS:       6971 HIT:       1422 MISS:       5549
LLC PREFETCH REQUESTED:          0 ISSUED:          0 USEFUL:          0 USELESS:          0
LLC AVERAGE MISS LATENCY: 260.9 cycles
cpu0_DTLB TOTAL        ACCESS:    6437350 HIT:    6389171 MISS:      48179
cpu0_DTLB LOAD         ACCESS:    6437350 HIT:    6389171 MISS:      48179
cpu0_DTLB RFO          ACCESS:          0 HIT:          0 MISS:          0
cpu0_DTLB PREFETCH     ACCESS:          0 HIT:          0 MISS:          0
cpu0_DTLB WRITE        ACCESS:          0 HIT:          0 MISS:          0
cpu0_DTLB TRANSLATION  ACCESS:          0 HIT:          0 MISS:          0
cpu0_DTLB PREFETCH REQUESTED:          0 ISSUED:          0 USEFUL:          0 USELESS:          0
cpu0_DTLB AVERAGE MISS LATENCY: 97.58 cycles
cpu0_ITLB TOTAL        ACCESS:         34 HIT:         34 MISS:          0
cpu0_ITLB LOAD         ACCESS:         34 HIT:         34 MISS:          0
cpu0_ITLB RFO          ACCESS:          0 HIT:          0 MISS:          0
cpu0_ITLB PREFETCH     ACCESS:          0 HIT:          0 MISS:          0
cpu0_ITLB WRITE        ACCESS:          0 HIT:          0 MISS:          0
cpu0_ITLB TRANSLATION  ACCESS:          0 HIT:          0 MISS:          0
cpu0_ITLB PREFETCH REQUESTED:          0 ISSUED:          0 USEFUL:          0 USELESS:          0
cpu0_ITLB AVERAGE MISS LATENCY: -nan cycles
cpu0_L1D TOTAL        ACCESS:   12897404 HIT:    9839495 MISS:    3057909
cpu0_L1D LOAD         ACCESS:    6341583 HIT:    5742653 MISS:     598930
cpu0_L1D RFO          ACCESS:          0 HIT:          0 MISS:          0
cpu0_L1D PREFETCH     ACCESS:    5900394 HIT:    3473960 MISS:    2426434
cpu0_L1D WRITE        ACCESS:     622501 HIT:     612486 MISS:      10015
cpu0_L1D TRANSLATION  ACCESS:      32926 HIT:      10396 MISS:      22530
cpu0_L1D PREFETCH REQUESTED:    6341907 ISSUED:    5900394 USEFUL:     390326 USELESS:     302564
cpu0_L1D AVERAGE MISS LATENCY: 49.13 cycles
cpu0_L1I TOTAL        ACCESS:         36 HIT:         32 MISS:          4
cpu0_L1I LOAD         ACCESS:         36 HIT:         32 MISS:          4
cpu0_L1I RFO          ACCESS:          0 HIT:          0 MISS:          0
cpu0_L1I PREFETCH     ACCESS:          0 HIT:          0 MISS:          0
cpu0_L1I WRITE        ACCESS:          0 HIT:          0 MISS:          0
cpu0_L1I TRANSLATION  ACCESS:          0 HIT:          0 MISS:          0
cpu0_L1I PREFETCH REQUESTED:          0 ISSUED:          0 USEFUL:          0 USELESS:          0
cpu0_L1I AVERAGE MISS LATENCY: 306.5 cycles
cpu0_L2C TOTAL        ACCESS:    1179415 HIT:     480746 MISS:     698669
cpu0_L2C LOAD         ACCESS:     368339 HIT:     202575 MISS:     165764
cpu0_L2C RFO          ACCESS:       2622 HIT:       1359 MISS:       1263
cpu0_L2C PREFETCH     ACCESS:     719177 HIT:     194510 MISS:     524667
cpu0_L2C WRITE        ACCESS:      66749 HIT:      66745 MISS:          4
cpu0_L2C TRANSLATION  ACCESS:      22528 HIT:      15557 MISS:       6971
cpu0_L2C PREFETCH REQUESTED:      26442 ISSUED:      26442 USEFUL:       9969 USELESS:      12171
cpu0_L2C AVERAGE MISS LATENCY: 237.5 cycles
cpu0_STLB TOTAL        ACCESS:      40039 HIT:       7224 MISS:      32815
cpu0_STLB LOAD         ACCESS:      40039 HIT:       7224 MISS:      32815
cpu0_STLB RFO          ACCESS:          0 HIT:          0 MISS:          0
cpu0_STLB PREFETCH     ACCESS:          0 HIT:          0 MISS:          0
cpu0_STLB WRITE        ACCESS:          0 HIT:          0 MISS:          0
cpu0_STLB TRANSLATION  ACCESS:          0 HIT:          0 MISS:          0
cpu0_STLB PREFETCH REQUESTED:          0 ISSUED:          0 USEFUL:          0 USELESS:          0
cpu0_STLB AVERAGE MISS LATENCY: 133.7 cycles

DRAM Statistics

Channel 0 RQ ROW_BUFFER_HIT:     110340
  ROW_BUFFER_MISS:     469871
 AVG DBUS CONGESTED CYCLE: 3.817
WQ ROW_BUFFER_HIT: Channel 0 
  ROW_BUFFER_MISS:       4949
  FULL:      60301
