WARNING: physical memory size is smaller than virtual memory size.

*** ChampSim Multicore Out-of-Order Simulator ***
Warmup Instructions: 25000000
Simulation Instructions: 25000000
Number of CPUs: 1
Page size: 4096

Off-chip DRAM Size: 4 GiB Channels: 1 Width: 64-bit Data Race: 800 MT/s
Heartbeat CPU 0 instructions: 10000002 cycles: 2500136 heartbeat IPC: 4 cumulative IPC: 4 (Simulation time: 00 hr 00 min 30 sec)
Heartbeat CPU 0 instructions: 20000001 cycles: 5014039 heartbeat IPC: 3.978 cumulative IPC: 3.989 (Simulation time: 00 hr 01 min 08 sec)
Warmup finished CPU 0 instructions: 25000001 cycles: 6264040 cumulative IPC: 3.991 (Simulation time: 00 hr 01 min 31 sec)
Warmup complete CPU 0 instructions: 25000001 cycles: 6264040 cumulative IPC: 3.991 (Simulation time: 00 hr 01 min 31 sec)
Heartbeat CPU 0 instructions: 30000001 cycles: 16870509 heartbeat IPC: 0.8434 cumulative IPC: 0.4714 (Simulation time: 00 hr 02 min 35 sec)
Heartbeat CPU 0 instructions: 40000003 cycles: 37660428 heartbeat IPC: 0.481 cumulative IPC: 0.4778 (Simulation time: 00 hr 04 min 41 sec)
Heartbeat CPU 0 instructions: 50000001 cycles: 58464696 heartbeat IPC: 0.4807 cumulative IPC: 0.4789 (Simulation time: 00 hr 06 min 51 sec)
Simulation finished CPU 0 instructions: 25000000 cycles: 52200657 cumulative IPC: 0.4789 (Simulation time: 00 hr 06 min 51 sec)
Simulation complete CPU 0 instructions: 25000000 cycles: 52200657 cumulative IPC: 0.4789 (Simulation time: 00 hr 06 min 51 sec)

ChampSim completed all CPUs

=== Simulation ===
CPU 0 runs ./gap/bfs-10.trace.gz
Region of Interest Statistics

CPU 0 cumulative IPC: 0.4789 instructions: 25000000 cycles: 52200657
CPU 0 Branch Prediction Accuracy: 83.9% MPKI: 33.23 Average ROB Occupancy at Mispredict: 10.98
Branch type MPKI
BRANCH_DIRECT_JUMP: 0
BRANCH_INDIRECT: 0
BRANCH_CONDITIONAL: 33.2
BRANCH_DIRECT_CALL: 0
BRANCH_INDIRECT_CALL: 0
BRANCH_RETURN: 0

LLC TOTAL        ACCESS:     472280 HIT:      62333 MISS:     409947
LLC LOAD         ACCESS:      93824 HIT:      11734 MISS:      82090
LLC RFO          ACCESS:          0 HIT:          0 MISS:          0
LLC PREFETCH     ACCESS:     336654 HIT:      10983 MISS:     325671
LLC WRITE        ACCESS:      37955 HIT:      37714 MISS:        241
LLC TRANSLATION  ACCESS:       3847 HIT:       1902 MISS:       1945
LLC PREFETCH REQUESTED:          0 ISSUED:          0 USEFUL:          0 USELESS:          0
LLC AVERAGE MISS LATENCY: 238.6 cycles
cpu0_DTLB TOTAL        ACCESS:    5965979 HIT:    5907548 MISS:      58431
cpu0_DTLB LOAD         ACCESS:    5965979 HIT:    5907548 MISS:      58431
cpu0_DTLB RFO          ACCESS:          0 HIT:          0 MISS:          0
cpu0_DTLB PREFETCH     ACCESS:          0 HIT:          0 MISS:          0
cpu0_DTLB WRITE        ACCESS:          0 HIT:          0 MISS:          0
cpu0_DTLB TRANSLATION  ACCESS:          0 HIT:          0 MISS:          0
cpu0_DTLB PREFETCH REQUESTED:          0 ISSUED:          0 USEFUL:          0 USELESS:          0
cpu0_DTLB AVERAGE MISS LATENCY: 61.04 cycles
cpu0_ITLB TOTAL        ACCESS:          0 HIT:          0 MISS:          0
cpu0_ITLB LOAD         ACCESS:          0 HIT:          0 MISS:          0
cpu0_ITLB RFO          ACCESS:          0 HIT:          0 MISS:          0
cpu0_ITLB PREFETCH     ACCESS:          0 HIT:          0 MISS:          0
cpu0_ITLB WRITE        ACCESS:          0 HIT:          0 MISS:          0
cpu0_ITLB TRANSLATION  ACCESS:          0 HIT:          0 MISS:          0
cpu0_ITLB PREFETCH REQUESTED:          0 ISSUED:          0 USEFUL:          0 USELESS:          0
cpu0_ITLB AVERAGE MISS LATENCY: -nan cycles
cpu0_L1D TOTAL        ACCESS:   12641632 HIT:    7874964 MISS:    4766668
cpu0_L1D LOAD         ACCESS:    6275303 HIT:    4494415 MISS:    1780888
cpu0_L1D RFO          ACCESS:          0 HIT:          0 MISS:          0
cpu0_L1D PREFETCH     ACCESS:    5978079 HIT:    3006407 MISS:    2971672
cpu0_L1D WRITE        ACCESS:     373079 HIT:     373079 MISS:          0
cpu0_L1D TRANSLATION  ACCESS:      15171 HIT:       1063 MISS:      14108
cpu0_L1D PREFETCH REQUESTED:    6275446 ISSUED:    5978077 USEFUL:     417540 USELESS:     932544
cpu0_L1D AVERAGE MISS LATENCY: 24.43 cycles
cpu0_L1I TOTAL        ACCESS:          0 HIT:          0 MISS:          0
cpu0_L1I LOAD         ACCESS:          0 HIT:          0 MISS:          0
cpu0_L1I RFO          ACCESS:          0 HIT:          0 MISS:          0
cpu0_L1I PREFETCH     ACCESS:          0 HIT:          0 MISS:          0
cpu0_L1I WRITE        ACCESS:          0 HIT:          0 MISS:          0
cpu0_L1I TRANSLATION  ACCESS:          0 HIT:          0 MISS:          0
cpu0_L1I PREFETCH REQUESTED:          0 ISSUED:          0 USEFUL:          0 USELESS:          0
cpu0_L1I AVERAGE MISS LATENCY: -nan cycles
cpu0_L2C TOTAL        ACCESS:    2635484 HIT:    2200224 MISS:     435260
cpu0_L2C LOAD         ACCESS:    1209763 HIT:    1115710 MISS:      94053
cpu0_L2C RFO          ACCESS:          0 HIT:          0 MISS:          0
cpu0_L2C PREFETCH     ACCESS:    1373697 HIT:    1036347 MISS:     337350
cpu0_L2C WRITE        ACCESS:      37916 HIT:      37906 MISS:         10
cpu0_L2C TRANSLATION  ACCESS:      14108 HIT:      10261 MISS:       3847
cpu0_L2C PREFETCH REQUESTED:      23625 ISSUED:      23625 USEFUL:       6014 USELESS:       6815
cpu0_L2C AVERAGE MISS LATENCY: 245.5 cycles
cpu0_STLB TOTAL        ACCESS:      17294 HIT:       2158 MISS:      15136
cpu0_STLB LOAD         ACCESS:      17294 HIT:       2158 MISS:      15136
cpu0_STLB RFO          ACCESS:          0 HIT:          0 MISS:          0
cpu0_STLB PREFETCH     ACCESS:          0 HIT:          0 MISS:          0
cpu0_STLB WRITE        ACCESS:          0 HIT:          0 MISS:          0
cpu0_STLB TRANSLATION  ACCESS:          0 HIT:          0 MISS:          0
cpu0_STLB PREFETCH REQUESTED:          0 ISSUED:          0 USEFUL:          0 USELESS:          0
cpu0_STLB AVERAGE MISS LATENCY: 231.2 cycles

DRAM Statistics

Channel 0 RQ ROW_BUFFER_HIT:      71323
  ROW_BUFFER_MISS:     338379
 AVG DBUS CONGESTED CYCLE: 3.789
WQ ROW_BUFFER_HIT: Channel 0 
  ROW_BUFFER_MISS:       2039
  FULL:      38147
