WARNING: physical memory size is smaller than virtual memory size.

*** ChampSim Multicore Out-of-Order Simulator ***
Warmup Instructions: 25000000
Simulation Instructions: 25000000
Number of CPUs: 1
Page size: 4096

Off-chip DRAM Size: 4 GiB Channels: 1 Width: 64-bit Data Race: 800 MT/s
Heartbeat CPU 0 instructions: 10000001 cycles: 2500134 heartbeat IPC: 4 cumulative IPC: 4 (Simulation time: 00 hr 00 min 31 sec)
Heartbeat CPU 0 instructions: 20000001 cycles: 5000134 heartbeat IPC: 4 cumulative IPC: 4 (Simulation time: 00 hr 01 min 05 sec)
Warmup finished CPU 0 instructions: 25000001 cycles: 6250135 cumulative IPC: 4 (Simulation time: 00 hr 01 min 23 sec)
Warmup complete CPU 0 instructions: 25000001 cycles: 6250135 cumulative IPC: 4 (Simulation time: 00 hr 01 min 23 sec)
Heartbeat CPU 0 instructions: 30000001 cycles: 29425785 heartbeat IPC: 0.4094 cumulative IPC: 0.2157 (Simulation time: 00 hr 03 min 57 sec)
Heartbeat CPU 0 instructions: 40000002 cycles: 76089720 heartbeat IPC: 0.2143 cumulative IPC: 0.2148 (Simulation time: 00 hr 09 min 10 sec)
Heartbeat CPU 0 instructions: 50000000 cycles: 122354290 heartbeat IPC: 0.2161 cumulative IPC: 0.2153 (Simulation time: 00 hr 12 min 52 sec)
Simulation finished CPU 0 instructions: 25000000 cycles: 116104157 cumulative IPC: 0.2153 (Simulation time: 00 hr 12 min 52 sec)
Simulation complete CPU 0 instructions: 25000000 cycles: 116104157 cumulative IPC: 0.2153 (Simulation time: 00 hr 12 min 52 sec)

ChampSim completed all CPUs

=== Simulation ===
CPU 0 runs ./gap/cc-13.trace.gz
Region of Interest Statistics

CPU 0 cumulative IPC: 0.2153 instructions: 25000000 cycles: 116104157
CPU 0 Branch Prediction Accuracy: 85.22% MPKI: 29.72 Average ROB Occupancy at Mispredict: 14.83
Branch type MPKI
BRANCH_DIRECT_JUMP: 0
BRANCH_INDIRECT: 0
BRANCH_CONDITIONAL: 29.7
BRANCH_DIRECT_CALL: 0
BRANCH_INDIRECT_CALL: 0
BRANCH_RETURN: 0

LLC TOTAL        ACCESS:    2988279 HIT:    2001907 MISS:     986372
LLC LOAD         ACCESS:    1510187 HIT:    1059864 MISS:     450323
LLC RFO          ACCESS:          0 HIT:          0 MISS:          0
LLC PREFETCH     ACCESS:    1390859 HIT:     857254 MISS:     533605
LLC WRITE        ACCESS:      87063 HIT:      84643 MISS:       2420
LLC TRANSLATION  ACCESS:        170 HIT:        146 MISS:         24
LLC PREFETCH REQUESTED:          0 ISSUED:          0 USEFUL:          0 USELESS:          0
LLC AVERAGE MISS LATENCY: 309.1 cycles
cpu0_DTLB TOTAL        ACCESS:    6272630 HIT:    4892894 MISS:    1379736
cpu0_DTLB LOAD         ACCESS:    6272630 HIT:    4892894 MISS:    1379736
cpu0_DTLB RFO          ACCESS:          0 HIT:          0 MISS:          0
cpu0_DTLB PREFETCH     ACCESS:          0 HIT:          0 MISS:          0
cpu0_DTLB WRITE        ACCESS:          0 HIT:          0 MISS:          0
cpu0_DTLB TRANSLATION  ACCESS:          0 HIT:          0 MISS:          0
cpu0_DTLB PREFETCH REQUESTED:          0 ISSUED:          0 USEFUL:          0 USELESS:          0
cpu0_DTLB AVERAGE MISS LATENCY: 6.831 cycles
cpu0_ITLB TOTAL        ACCESS:          0 HIT:          0 MISS:          0
cpu0_ITLB LOAD         ACCESS:          0 HIT:          0 MISS:          0
cpu0_ITLB RFO          ACCESS:          0 HIT:          0 MISS:          0
cpu0_ITLB PREFETCH     ACCESS:          0 HIT:          0 MISS:          0
cpu0_ITLB WRITE        ACCESS:          0 HIT:          0 MISS:          0
cpu0_ITLB TRANSLATION  ACCESS:          0 HIT:          0 MISS:          0
cpu0_ITLB PREFETCH REQUESTED:          0 ISSUED:          0 USEFUL:          0 USELESS:          0
cpu0_ITLB AVERAGE MISS LATENCY: -nan cycles
cpu0_L1D TOTAL        ACCESS:   11907684 HIT:    7906771 MISS:    4000913
cpu0_L1D LOAD         ACCESS:    6626747 HIT:    4679111 MISS:    1947636
cpu0_L1D RFO          ACCESS:          0 HIT:          0 MISS:          0
cpu0_L1D PREFETCH     ACCESS:    5176080 HIT:    3124640 MISS:    2051440
cpu0_L1D WRITE        ACCESS:     103020 HIT:     103020 MISS:          0
cpu0_L1D TRANSLATION  ACCESS:       1837 HIT:          0 MISS:       1837
cpu0_L1D PREFETCH REQUESTED:    6954886 ISSUED:    5176074 USEFUL:     146746 USELESS:    1401269
cpu0_L1D AVERAGE MISS LATENCY: 95.21 cycles
cpu0_L1I TOTAL        ACCESS:          0 HIT:          0 MISS:          0
cpu0_L1I LOAD         ACCESS:          0 HIT:          0 MISS:          0
cpu0_L1I RFO          ACCESS:          0 HIT:          0 MISS:          0
cpu0_L1I PREFETCH     ACCESS:          0 HIT:          0 MISS:          0
cpu0_L1I WRITE        ACCESS:          0 HIT:          0 MISS:          0
cpu0_L1I TRANSLATION  ACCESS:          0 HIT:          0 MISS:          0
cpu0_L1I PREFETCH REQUESTED:          0 ISSUED:          0 USEFUL:          0 USELESS:          0
cpu0_L1I AVERAGE MISS LATENCY: -nan cycles
cpu0_L2C TOTAL        ACCESS:    3506571 HIT:     588794 MISS:    2917777
cpu0_L2C LOAD         ACCESS:    1796111 HIT:     284108 MISS:    1512003
cpu0_L2C RFO          ACCESS:          0 HIT:          0 MISS:          0
cpu0_L2C PREFETCH     ACCESS:    1621523 HIT:     216370 MISS:    1405153
cpu0_L2C WRITE        ACCESS:      87100 HIT:      86649 MISS:        451
cpu0_L2C TRANSLATION  ACCESS:       1837 HIT:       1667 MISS:        170
cpu0_L2C PREFETCH REQUESTED:      73489 ISSUED:      73489 USEFUL:       8880 USELESS:      48739
cpu0_L2C AVERAGE MISS LATENCY: 124.4 cycles
cpu0_STLB TOTAL        ACCESS:    1204971 HIT:    1203137 MISS:       1834
cpu0_STLB LOAD         ACCESS:    1204971 HIT:    1203137 MISS:       1834
cpu0_STLB RFO          ACCESS:          0 HIT:          0 MISS:          0
cpu0_STLB PREFETCH     ACCESS:          0 HIT:          0 MISS:          0
cpu0_STLB WRITE        ACCESS:          0 HIT:          0 MISS:          0
cpu0_STLB TRANSLATION  ACCESS:          0 HIT:          0 MISS:          0
cpu0_STLB PREFETCH REQUESTED:          0 ISSUED:          0 USEFUL:          0 USELESS:          0
cpu0_STLB AVERAGE MISS LATENCY: 223.2 cycles

DRAM Statistics

Channel 0 RQ ROW_BUFFER_HIT:     207220
  ROW_BUFFER_MISS:     775328
 AVG DBUS CONGESTED CYCLE: 3.898
WQ ROW_BUFFER_HIT: Channel 0 
  ROW_BUFFER_MISS:      11901
  FULL:      67983
