WARNING: physical memory size is smaller than virtual memory size.

*** ChampSim Multicore Out-of-Order Simulator ***
Warmup Instructions: 25000000
Simulation Instructions: 25000000
Number of CPUs: 1
Page size: 4096

Off-chip DRAM Size: 4 GiB Channels: 1 Width: 64-bit Data Race: 800 MT/s
Heartbeat CPU 0 instructions: 10000001 cycles: 2500135 heartbeat IPC: 4 cumulative IPC: 4 (Simulation time: 00 hr 00 min 31 sec)
Heartbeat CPU 0 instructions: 20000001 cycles: 5000135 heartbeat IPC: 4 cumulative IPC: 4 (Simulation time: 00 hr 01 min 05 sec)
Warmup finished CPU 0 instructions: 25000001 cycles: 6250136 cumulative IPC: 4 (Simulation time: 00 hr 01 min 24 sec)
Warmup complete CPU 0 instructions: 25000001 cycles: 6250136 cumulative IPC: 4 (Simulation time: 00 hr 01 min 24 sec)
Heartbeat CPU 0 instructions: 30000000 cycles: 27158893 heartbeat IPC: 0.4513 cumulative IPC: 0.2391 (Simulation time: 00 hr 03 min 47 sec)
Heartbeat CPU 0 instructions: 40000002 cycles: 68176812 heartbeat IPC: 0.2438 cumulative IPC: 0.2422 (Simulation time: 00 hr 08 min 35 sec)
Heartbeat CPU 0 instructions: 50000000 cycles: 108478848 heartbeat IPC: 0.2481 cumulative IPC: 0.2445 (Simulation time: 00 hr 12 min 16 sec)
Simulation finished CPU 0 instructions: 25000003 cycles: 102228714 cumulative IPC: 0.2445 (Simulation time: 00 hr 12 min 16 sec)
Simulation complete CPU 0 instructions: 25000003 cycles: 102228714 cumulative IPC: 0.2445 (Simulation time: 00 hr 12 min 16 sec)

ChampSim completed all CPUs

=== Simulation ===
CPU 0 runs ./gap/cc-14.trace.gz
Region of Interest Statistics

CPU 0 cumulative IPC: 0.2445 instructions: 25000003 cycles: 102228714
CPU 0 Branch Prediction Accuracy: 88.25% MPKI: 23.47 Average ROB Occupancy at Mispredict: 21.88
Branch type MPKI
BRANCH_DIRECT_JUMP: 0
BRANCH_INDIRECT: 0
BRANCH_CONDITIONAL: 23.5
BRANCH_DIRECT_CALL: 0
BRANCH_INDIRECT_CALL: 0
BRANCH_RETURN: 0

LLC TOTAL        ACCESS:    2792916 HIT:    1886653 MISS:     906263
LLC LOAD         ACCESS:    1484698 HIT:    1053965 MISS:     430733
LLC RFO          ACCESS:          0 HIT:          0 MISS:          0
LLC PREFETCH     ACCESS:    1223372 HIT:     750173 MISS:     473199
LLC WRITE        ACCESS:      84707 HIT:      82392 MISS:       2315
LLC TRANSLATION  ACCESS:        139 HIT:        123 MISS:         16
LLC PREFETCH REQUESTED:          0 ISSUED:          0 USEFUL:          0 USELESS:          0
LLC AVERAGE MISS LATENCY: 344.8 cycles
cpu0_DTLB TOTAL        ACCESS:    6039982 HIT:    4650268 MISS:    1389714
cpu0_DTLB LOAD         ACCESS:    6039982 HIT:    4650268 MISS:    1389714
cpu0_DTLB RFO          ACCESS:          0 HIT:          0 MISS:          0
cpu0_DTLB PREFETCH     ACCESS:          0 HIT:          0 MISS:          0
cpu0_DTLB WRITE        ACCESS:          0 HIT:          0 MISS:          0
cpu0_DTLB TRANSLATION  ACCESS:          0 HIT:          0 MISS:          0
cpu0_DTLB PREFETCH REQUESTED:          0 ISSUED:          0 USEFUL:          0 USELESS:          0
cpu0_DTLB AVERAGE MISS LATENCY: 6.582 cycles
cpu0_ITLB TOTAL        ACCESS:          0 HIT:          0 MISS:          0
cpu0_ITLB LOAD         ACCESS:          0 HIT:          0 MISS:          0
cpu0_ITLB RFO          ACCESS:          0 HIT:          0 MISS:          0
cpu0_ITLB PREFETCH     ACCESS:          0 HIT:          0 MISS:          0
cpu0_ITLB WRITE        ACCESS:          0 HIT:          0 MISS:          0
cpu0_ITLB TRANSLATION  ACCESS:          0 HIT:          0 MISS:          0
cpu0_ITLB PREFETCH REQUESTED:          0 ISSUED:          0 USEFUL:          0 USELESS:          0
cpu0_ITLB AVERAGE MISS LATENCY: -nan cycles
cpu0_L1D TOTAL        ACCESS:   11098172 HIT:    7283596 MISS:    3814576
cpu0_L1D LOAD         ACCESS:    6479001 HIT:    4528936 MISS:    1950065
cpu0_L1D RFO          ACCESS:          0 HIT:          0 MISS:          0
cpu0_L1D PREFETCH     ACCESS:    4516697 HIT:    2653973 MISS:    1862724
cpu0_L1D WRITE        ACCESS:     100683 HIT:     100683 MISS:          0
cpu0_L1D TRANSLATION  ACCESS:       1791 HIT:          4 MISS:       1787
cpu0_L1D PREFETCH REQUESTED:    6928518 ISSUED:    4516689 USEFUL:     132604 USELESS:    1228395
cpu0_L1D AVERAGE MISS LATENCY: 100.7 cycles
cpu0_L1I TOTAL        ACCESS:          0 HIT:          0 MISS:          0
cpu0_L1I LOAD         ACCESS:          0 HIT:          0 MISS:          0
cpu0_L1I RFO          ACCESS:          0 HIT:          0 MISS:          0
cpu0_L1I PREFETCH     ACCESS:          0 HIT:          0 MISS:          0
cpu0_L1I WRITE        ACCESS:          0 HIT:          0 MISS:          0
cpu0_L1I TRANSLATION  ACCESS:          0 HIT:          0 MISS:          0
cpu0_L1I PREFETCH REQUESTED:          0 ISSUED:          0 USEFUL:          0 USELESS:          0
cpu0_L1I AVERAGE MISS LATENCY: -nan cycles
cpu0_L2C TOTAL        ACCESS:    3253594 HIT:     539584 MISS:    2714010
cpu0_L2C LOAD         ACCESS:    1760441 HIT:     275300 MISS:    1485141
cpu0_L2C RFO          ACCESS:          0 HIT:          0 MISS:          0
cpu0_L2C PREFETCH     ACCESS:    1406634 HIT:     178368 MISS:    1228266
cpu0_L2C WRITE        ACCESS:      84732 HIT:      84268 MISS:        464
cpu0_L2C TRANSLATION  ACCESS:       1787 HIT:       1648 MISS:        139
cpu0_L2C PREFETCH REQUESTED:      45595 ISSUED:      45595 USEFUL:       3988 USELESS:      34093
cpu0_L2C AVERAGE MISS LATENCY: 135.1 cycles
cpu0_STLB TOTAL        ACCESS:    1186639 HIT:    1184851 MISS:       1788
cpu0_STLB LOAD         ACCESS:    1186639 HIT:    1184851 MISS:       1788
cpu0_STLB RFO          ACCESS:          0 HIT:          0 MISS:          0
cpu0_STLB PREFETCH     ACCESS:          0 HIT:          0 MISS:          0
cpu0_STLB WRITE        ACCESS:          0 HIT:          0 MISS:          0
cpu0_STLB TRANSLATION  ACCESS:          0 HIT:          0 MISS:          0
cpu0_STLB PREFETCH REQUESTED:          0 ISSUED:          0 USEFUL:          0 USELESS:          0
cpu0_STLB AVERAGE MISS LATENCY: 223 cycles

DRAM Statistics

Channel 0 RQ ROW_BUFFER_HIT:     180192
  ROW_BUFFER_MISS:     722183
 AVG DBUS CONGESTED CYCLE: 3.901
WQ ROW_BUFFER_HIT: Channel 0 
  ROW_BUFFER_MISS:       5364
  FULL:      71392
