WARNING: physical memory size is smaller than virtual memory size.

*** ChampSim Multicore Out-of-Order Simulator ***
Warmup Instructions: 25000000
Simulation Instructions: 25000000
Number of CPUs: 1
Page size: 4096

Off-chip DRAM Size: 4 GiB Channels: 1 Width: 64-bit Data Race: 800 MT/s
Heartbeat CPU 0 instructions: 10000001 cycles: 2500132 heartbeat IPC: 4 cumulative IPC: 4 (Simulation time: 00 hr 00 min 32 sec)
Heartbeat CPU 0 instructions: 20000001 cycles: 5000132 heartbeat IPC: 4 cumulative IPC: 4 (Simulation time: 00 hr 01 min 07 sec)
Warmup finished CPU 0 instructions: 25000001 cycles: 6250133 cumulative IPC: 4 (Simulation time: 00 hr 01 min 27 sec)
Warmup complete CPU 0 instructions: 25000001 cycles: 6250133 cumulative IPC: 4 (Simulation time: 00 hr 01 min 27 sec)
Heartbeat CPU 0 instructions: 30000002 cycles: 25227769 heartbeat IPC: 0.4944 cumulative IPC: 0.2635 (Simulation time: 00 hr 03 min 27 sec)
Heartbeat CPU 0 instructions: 40000000 cycles: 63299714 heartbeat IPC: 0.2627 cumulative IPC: 0.2629 (Simulation time: 00 hr 07 min 42 sec)
Heartbeat CPU 0 instructions: 50000001 cycles: 99751270 heartbeat IPC: 0.2743 cumulative IPC: 0.2674 (Simulation time: 00 hr 11 min 32 sec)
Simulation finished CPU 0 instructions: 25000000 cycles: 93501138 cumulative IPC: 0.2674 (Simulation time: 00 hr 11 min 32 sec)
Simulation complete CPU 0 instructions: 25000000 cycles: 93501138 cumulative IPC: 0.2674 (Simulation time: 00 hr 11 min 32 sec)

ChampSim completed all CPUs

=== Simulation ===
CPU 0 runs ./gap/cc-5.trace.gz
Region of Interest Statistics

CPU 0 cumulative IPC: 0.2674 instructions: 25000000 cycles: 93501138
CPU 0 Branch Prediction Accuracy: 90.5% MPKI: 18.82 Average ROB Occupancy at Mispredict: 30.11
Branch type MPKI
BRANCH_DIRECT_JUMP: 0
BRANCH_INDIRECT: 0
BRANCH_CONDITIONAL: 18.8
BRANCH_DIRECT_CALL: 0
BRANCH_INDIRECT_CALL: 0
BRANCH_RETURN: 0

LLC TOTAL        ACCESS:    2654123 HIT:    1762430 MISS:     891693
LLC LOAD         ACCESS:    1446040 HIT:    1014766 MISS:     431274
LLC RFO          ACCESS:          0 HIT:          0 MISS:          0
LLC PREFETCH     ACCESS:    1120641 HIT:     662700 MISS:     457941
LLC WRITE        ACCESS:      87302 HIT:      84842 MISS:       2460
LLC TRANSLATION  ACCESS:        140 HIT:        122 MISS:         18
LLC PREFETCH REQUESTED:          0 ISSUED:          0 USEFUL:          0 USELESS:          0
LLC AVERAGE MISS LATENCY: 375.8 cycles
cpu0_DTLB TOTAL        ACCESS:    5842831 HIT:    4540026 MISS:    1302805
cpu0_DTLB LOAD         ACCESS:    5842831 HIT:    4540026 MISS:    1302805
cpu0_DTLB RFO          ACCESS:          0 HIT:          0 MISS:          0
cpu0_DTLB PREFETCH     ACCESS:          0 HIT:          0 MISS:          0
cpu0_DTLB WRITE        ACCESS:          0 HIT:          0 MISS:          0
cpu0_DTLB TRANSLATION  ACCESS:          0 HIT:          0 MISS:          0
cpu0_DTLB PREFETCH REQUESTED:          0 ISSUED:          0 USEFUL:          0 USELESS:          0
cpu0_DTLB AVERAGE MISS LATENCY: 6.434 cycles
cpu0_ITLB TOTAL        ACCESS:          0 HIT:          0 MISS:          0
cpu0_ITLB LOAD         ACCESS:          0 HIT:          0 MISS:          0
cpu0_ITLB RFO          ACCESS:          0 HIT:          0 MISS:          0
cpu0_ITLB PREFETCH     ACCESS:          0 HIT:          0 MISS:          0
cpu0_ITLB WRITE        ACCESS:          0 HIT:          0 MISS:          0
cpu0_ITLB TRANSLATION  ACCESS:          0 HIT:          0 MISS:          0
cpu0_ITLB PREFETCH REQUESTED:          0 ISSUED:          0 USEFUL:          0 USELESS:          0
cpu0_ITLB AVERAGE MISS LATENCY: -nan cycles
cpu0_L1D TOTAL        ACCESS:   10536339 HIT:    6820393 MISS:    3715946
cpu0_L1D LOAD         ACCESS:    6355640 HIT:    4396399 MISS:    1959241
cpu0_L1D RFO          ACCESS:          0 HIT:          0 MISS:          0
cpu0_L1D PREFETCH     ACCESS:    4076405 HIT:    2321443 MISS:    1754962
cpu0_L1D WRITE        ACCESS:     102550 HIT:     102550 MISS:          0
cpu0_L1D TRANSLATION  ACCESS:       1744 HIT:          1 MISS:       1743
cpu0_L1D PREFETCH REQUESTED:    6959518 ISSUED:    4076406 USEFUL:     133943 USELESS:    1097104
cpu0_L1D AVERAGE MISS LATENCY: 106.2 cycles
cpu0_L1I TOTAL        ACCESS:          0 HIT:          0 MISS:          0
cpu0_L1I LOAD         ACCESS:          0 HIT:          0 MISS:          0
cpu0_L1I RFO          ACCESS:          0 HIT:          0 MISS:          0
cpu0_L1I PREFETCH     ACCESS:          0 HIT:          0 MISS:          0
cpu0_L1I WRITE        ACCESS:          0 HIT:          0 MISS:          0
cpu0_L1I TRANSLATION  ACCESS:          0 HIT:          0 MISS:          0
cpu0_L1I PREFETCH REQUESTED:          0 ISSUED:          0 USEFUL:          0 USELESS:          0
cpu0_L1I AVERAGE MISS LATENCY: -nan cycles
cpu0_L2C TOTAL        ACCESS:    3121218 HIT:     538329 MISS:    2582889
cpu0_L2C LOAD         ACCESS:    1729811 HIT:     282338 MISS:    1447473
cpu0_L2C RFO          ACCESS:          0 HIT:          0 MISS:          0
cpu0_L2C PREFETCH     ACCESS:    1302314 HIT:     167433 MISS:    1134881
cpu0_L2C WRITE        ACCESS:      87350 HIT:      86955 MISS:        395
cpu0_L2C TRANSLATION  ACCESS:       1743 HIT:       1603 MISS:        140
cpu0_L2C PREFETCH REQUESTED:      71282 ISSUED:      71282 USEFUL:       7062 USELESS:      45771
cpu0_L2C AVERAGE MISS LATENCY: 149.2 cycles
cpu0_STLB TOTAL        ACCESS:    1096156 HIT:    1094416 MISS:       1740
cpu0_STLB LOAD         ACCESS:    1096156 HIT:    1094416 MISS:       1740
cpu0_STLB RFO          ACCESS:          0 HIT:          0 MISS:          0
cpu0_STLB PREFETCH     ACCESS:          0 HIT:          0 MISS:          0
cpu0_STLB WRITE        ACCESS:          0 HIT:          0 MISS:          0
cpu0_STLB TRANSLATION  ACCESS:          0 HIT:          0 MISS:          0
cpu0_STLB PREFETCH REQUESTED:          0 ISSUED:          0 USEFUL:          0 USELESS:          0
cpu0_STLB AVERAGE MISS LATENCY: 223.5 cycles

DRAM Statistics

Channel 0 RQ ROW_BUFFER_HIT:     212771
  ROW_BUFFER_MISS:     674300
 AVG DBUS CONGESTED CYCLE: 3.896
WQ ROW_BUFFER_HIT: Channel 0 
  ROW_BUFFER_MISS:       4275
  FULL:      74901
