WARNING: physical memory size is smaller than virtual memory size.

*** ChampSim Multicore Out-of-Order Simulator ***
Warmup Instructions: 25000000
Simulation Instructions: 25000000
Number of CPUs: 1
Page size: 4096

Off-chip DRAM Size: 4 GiB Channels: 1 Width: 64-bit Data Race: 800 MT/s
Heartbeat CPU 0 instructions: 10000002 cycles: 2500127 heartbeat IPC: 4 cumulative IPC: 4 (Simulation time: 00 hr 00 min 30 sec)
Heartbeat CPU 0 instructions: 20000000 cycles: 5000505 heartbeat IPC: 3.999 cumulative IPC: 4 (Simulation time: 00 hr 01 min 10 sec)
Warmup finished CPU 0 instructions: 25000000 cycles: 6250506 cumulative IPC: 4 (Simulation time: 00 hr 01 min 35 sec)
Warmup complete CPU 0 instructions: 25000000 cycles: 6250506 cumulative IPC: 4 (Simulation time: 00 hr 01 min 35 sec)
Heartbeat CPU 0 instructions: 30000000 cycles: 28960490 heartbeat IPC: 0.4174 cumulative IPC: 0.2202 (Simulation time: 00 hr 05 min 05 sec)
Heartbeat CPU 0 instructions: 40000002 cycles: 74142311 heartbeat IPC: 0.2213 cumulative IPC: 0.2209 (Simulation time: 00 hr 11 min 53 sec)
Heartbeat CPU 0 instructions: 50000001 cycles: 120180077 heartbeat IPC: 0.2172 cumulative IPC: 0.2194 (Simulation time: 00 hr 15 min 54 sec)
Simulation finished CPU 0 instructions: 25000001 cycles: 113929572 cumulative IPC: 0.2194 (Simulation time: 00 hr 15 min 54 sec)
Simulation complete CPU 0 instructions: 25000001 cycles: 113929572 cumulative IPC: 0.2194 (Simulation time: 00 hr 15 min 54 sec)

ChampSim completed all CPUs

=== Simulation ===
CPU 0 runs ./gap/pr-10.trace.gz
Region of Interest Statistics

CPU 0 cumulative IPC: 0.2194 instructions: 25000001 cycles: 113929572
CPU 0 Branch Prediction Accuracy: 96.55% MPKI: 6.604 Average ROB Occupancy at Mispredict: 294.2
Branch type MPKI
BRANCH_DIRECT_JUMP: 0
BRANCH_INDIRECT: 0
BRANCH_CONDITIONAL: 6.6
BRANCH_DIRECT_CALL: 0
BRANCH_INDIRECT_CALL: 0
BRANCH_RETURN: 0

LLC TOTAL        ACCESS:    4889682 HIT:    3022834 MISS:    1866848
LLC LOAD         ACCESS:    3749776 HIT:    2642555 MISS:    1107221
LLC RFO          ACCESS:          0 HIT:          0 MISS:          0
LLC PREFETCH     ACCESS:    1129838 HIT:     370667 MISS:     759171
LLC WRITE        ACCESS:       9535 HIT:       9107 MISS:        428
LLC TRANSLATION  ACCESS:        533 HIT:        505 MISS:         28
LLC PREFETCH REQUESTED:          0 ISSUED:          0 USEFUL:          0 USELESS:          0
LLC AVERAGE MISS LATENCY: 1017 cycles
cpu0_DTLB TOTAL        ACCESS:    5874733 HIT:    2446457 MISS:    3428276
cpu0_DTLB LOAD         ACCESS:    5874733 HIT:    2446457 MISS:    3428276
cpu0_DTLB RFO          ACCESS:          0 HIT:          0 MISS:          0
cpu0_DTLB PREFETCH     ACCESS:          0 HIT:          0 MISS:          0
cpu0_DTLB WRITE        ACCESS:          0 HIT:          0 MISS:          0
cpu0_DTLB TRANSLATION  ACCESS:          0 HIT:          0 MISS:          0
cpu0_DTLB PREFETCH REQUESTED:          0 ISSUED:          0 USEFUL:          0 USELESS:          0
cpu0_DTLB AVERAGE MISS LATENCY: 6.329 cycles
cpu0_ITLB TOTAL        ACCESS:          0 HIT:          0 MISS:          0
cpu0_ITLB LOAD         ACCESS:          0 HIT:          0 MISS:          0
cpu0_ITLB RFO          ACCESS:          0 HIT:          0 MISS:          0
cpu0_ITLB PREFETCH     ACCESS:          0 HIT:          0 MISS:          0
cpu0_ITLB WRITE        ACCESS:          0 HIT:          0 MISS:          0
cpu0_ITLB TRANSLATION  ACCESS:          0 HIT:          0 MISS:          0
cpu0_ITLB PREFETCH REQUESTED:          0 ISSUED:          0 USEFUL:          0 USELESS:          0
cpu0_ITLB AVERAGE MISS LATENCY: -nan cycles
cpu0_L1D TOTAL        ACCESS:    8019587 HIT:    1557446 MISS:    6462141
cpu0_L1D LOAD         ACCESS:    5824539 HIT:     836363 MISS:    4988176
cpu0_L1D RFO          ACCESS:          0 HIT:          0 MISS:          0
cpu0_L1D PREFETCH     ACCESS:    1953865 HIT:     484711 MISS:    1469154
cpu0_L1D WRITE        ACCESS:     236366 HIT:     236366 MISS:          0
cpu0_L1D TRANSLATION  ACCESS:       4817 HIT:          6 MISS:       4811
cpu0_L1D PREFETCH REQUESTED:   99632223 ISSUED:    1953866 USEFUL:      76992 USELESS:     569881
cpu0_L1D AVERAGE MISS LATENCY: 270.3 cycles
cpu0_L1I TOTAL        ACCESS:          0 HIT:          0 MISS:          0
cpu0_L1I LOAD         ACCESS:          0 HIT:          0 MISS:          0
cpu0_L1I RFO          ACCESS:          0 HIT:          0 MISS:          0
cpu0_L1I PREFETCH     ACCESS:          0 HIT:          0 MISS:          0
cpu0_L1I WRITE        ACCESS:          0 HIT:          0 MISS:          0
cpu0_L1I TRANSLATION  ACCESS:          0 HIT:          0 MISS:          0
cpu0_L1I PREFETCH REQUESTED:          0 ISSUED:          0 USEFUL:          0 USELESS:          0
cpu0_L1I AVERAGE MISS LATENCY: -nan cycles
cpu0_L2C TOTAL        ACCESS:    5911898 HIT:     798162 MISS:    5113736
cpu0_L2C LOAD         ACCESS:    4556875 HIT:     718878 MISS:    3837997
cpu0_L2C RFO          ACCESS:          0 HIT:          0 MISS:          0
cpu0_L2C PREFETCH     ACCESS:    1337541 HIT:      62549 MISS:    1274992
cpu0_L2C WRITE        ACCESS:      12671 HIT:      12457 MISS:        214
cpu0_L2C TRANSLATION  ACCESS:       4811 HIT:       4278 MISS:        533
cpu0_L2C PREFETCH REQUESTED:     690608 ISSUED:     690608 USEFUL:     121276 USELESS:      28258
cpu0_L2C AVERAGE MISS LATENCY: 349.4 cycles
cpu0_STLB TOTAL        ACCESS:    2914653 HIT:    2909844 MISS:       4809
cpu0_STLB LOAD         ACCESS:    2914653 HIT:    2909844 MISS:       4809
cpu0_STLB RFO          ACCESS:          0 HIT:          0 MISS:          0
cpu0_STLB PREFETCH     ACCESS:          0 HIT:          0 MISS:          0
cpu0_STLB WRITE        ACCESS:          0 HIT:          0 MISS:          0
cpu0_STLB TRANSLATION  ACCESS:          0 HIT:          0 MISS:          0
cpu0_STLB PREFETCH REQUESTED:          0 ISSUED:          0 USEFUL:          0 USELESS:          0
cpu0_STLB AVERAGE MISS LATENCY: 345.3 cycles

DRAM Statistics

Channel 0 RQ ROW_BUFFER_HIT:     205626
  ROW_BUFFER_MISS:    1385207
 AVG DBUS CONGESTED CYCLE: 3.964
WQ ROW_BUFFER_HIT: Channel 0 
  ROW_BUFFER_MISS:       2589
  FULL:       6656
