WARNING: physical memory size is smaller than virtual memory size.

*** ChampSim Multicore Out-of-Order Simulator ***
Warmup Instructions: 25000000
Simulation Instructions: 25000000
Number of CPUs: 1
Page size: 4096

Off-chip DRAM Size: 4 GiB Channels: 1 Width: 64-bit Data Race: 800 MT/s
Heartbeat CPU 0 instructions: 10000002 cycles: 2500138 heartbeat IPC: 4 cumulative IPC: 4 (Simulation time: 00 hr 00 min 30 sec)
Heartbeat CPU 0 instructions: 20000002 cycles: 5000138 heartbeat IPC: 4 cumulative IPC: 4 (Simulation time: 00 hr 01 min 07 sec)
Warmup finished CPU 0 instructions: 25000002 cycles: 6250139 cumulative IPC: 4 (Simulation time: 00 hr 01 min 31 sec)
Warmup complete CPU 0 instructions: 25000002 cycles: 6250139 cumulative IPC: 4 (Simulation time: 00 hr 01 min 31 sec)
Heartbeat CPU 0 instructions: 30000001 cycles: 36088654 heartbeat IPC: 0.3217 cumulative IPC: 0.1676 (Simulation time: 00 hr 06 min 22 sec)
Heartbeat CPU 0 instructions: 40000000 cycles: 96266225 heartbeat IPC: 0.1662 cumulative IPC: 0.1666 (Simulation time: 00 hr 13 min 51 sec)
Heartbeat CPU 0 instructions: 50000000 cycles: 156543021 heartbeat IPC: 0.1659 cumulative IPC: 0.1663 (Simulation time: 00 hr 18 min 13 sec)
Simulation finished CPU 0 instructions: 25000002 cycles: 150292884 cumulative IPC: 0.1663 (Simulation time: 00 hr 18 min 13 sec)
Simulation complete CPU 0 instructions: 25000002 cycles: 150292884 cumulative IPC: 0.1663 (Simulation time: 00 hr 18 min 13 sec)

ChampSim completed all CPUs

=== Simulation ===
CPU 0 runs ./gap/pr-14.trace.gz
Region of Interest Statistics

CPU 0 cumulative IPC: 0.1663 instructions: 25000002 cycles: 150292884
CPU 0 Branch Prediction Accuracy: 96.45% MPKI: 6.777 Average ROB Occupancy at Mispredict: 275
Branch type MPKI
BRANCH_DIRECT_JUMP: 0
BRANCH_INDIRECT: 0
BRANCH_CONDITIONAL: 6.78
BRANCH_DIRECT_CALL: 0
BRANCH_INDIRECT_CALL: 0
BRANCH_RETURN: 0

LLC TOTAL        ACCESS:    4677903 HIT:    2342146 MISS:    2335757
LLC LOAD         ACCESS:    3853795 HIT:    2182180 MISS:    1671615
LLC RFO          ACCESS:          0 HIT:          0 MISS:          0
LLC PREFETCH     ACCESS:     814442 HIT:     150339 MISS:     664103
LLC WRITE        ACCESS:       9254 HIT:       9249 MISS:          5
LLC TRANSLATION  ACCESS:        412 HIT:        378 MISS:         34
LLC PREFETCH REQUESTED:          0 ISSUED:          0 USEFUL:          0 USELESS:          0
LLC AVERAGE MISS LATENCY: 1092 cycles
cpu0_DTLB TOTAL        ACCESS:    5678711 HIT:    2119971 MISS:    3558740
cpu0_DTLB LOAD         ACCESS:    5678711 HIT:    2119971 MISS:    3558740
cpu0_DTLB RFO          ACCESS:          0 HIT:          0 MISS:          0
cpu0_DTLB PREFETCH     ACCESS:          0 HIT:          0 MISS:          0
cpu0_DTLB WRITE        ACCESS:          0 HIT:          0 MISS:          0
cpu0_DTLB TRANSLATION  ACCESS:          0 HIT:          0 MISS:          0
cpu0_DTLB PREFETCH REQUESTED:          0 ISSUED:          0 USEFUL:          0 USELESS:          0
cpu0_DTLB AVERAGE MISS LATENCY: 6.399 cycles
cpu0_ITLB TOTAL        ACCESS:          0 HIT:          0 MISS:          0
cpu0_ITLB LOAD         ACCESS:          0 HIT:          0 MISS:          0
cpu0_ITLB RFO          ACCESS:          0 HIT:          0 MISS:          0
cpu0_ITLB PREFETCH     ACCESS:          0 HIT:          0 MISS:          0
cpu0_ITLB WRITE        ACCESS:          0 HIT:          0 MISS:          0
cpu0_ITLB TRANSLATION  ACCESS:          0 HIT:          0 MISS:          0
cpu0_ITLB PREFETCH REQUESTED:          0 ISSUED:          0 USEFUL:          0 USELESS:          0
cpu0_ITLB AVERAGE MISS LATENCY: -nan cycles
cpu0_L1D TOTAL        ACCESS:    7080221 HIT:    1436458 MISS:    5643763
cpu0_L1D LOAD         ACCESS:    5569353 HIT:     807151 MISS:    4762202
cpu0_L1D RFO          ACCESS:          0 HIT:          0 MISS:          0
cpu0_L1D PREFETCH     ACCESS:    1273383 HIT:     396639 MISS:     876744
cpu0_L1D WRITE        ACCESS:     232668 HIT:     232668 MISS:          0
cpu0_L1D TRANSLATION  ACCESS:       4817 HIT:          0 MISS:       4817
cpu0_L1D PREFETCH REQUESTED:  141842660 ISSUED:    1273378 USEFUL:      59526 USELESS:     279346
cpu0_L1D AVERAGE MISS LATENCY: 417.6 cycles
cpu0_L1I TOTAL        ACCESS:          0 HIT:          0 MISS:          0
cpu0_L1I LOAD         ACCESS:          0 HIT:          0 MISS:          0
cpu0_L1I RFO          ACCESS:          0 HIT:          0 MISS:          0
cpu0_L1I PREFETCH     ACCESS:          0 HIT:          0 MISS:          0
cpu0_L1I WRITE        ACCESS:          0 HIT:          0 MISS:          0
cpu0_L1I TRANSLATION  ACCESS:          0 HIT:          0 MISS:          0
cpu0_L1I PREFETCH REQUESTED:          0 ISSUED:          0 USEFUL:          0 USELESS:          0
cpu0_L1I AVERAGE MISS LATENCY: -nan cycles
cpu0_L2C TOTAL        ACCESS:    5655193 HIT:     772999 MISS:    4882194
cpu0_L2C LOAD         ACCESS:    4576219 HIT:     681723 MISS:    3894496
cpu0_L2C RFO          ACCESS:          0 HIT:          0 MISS:          0
cpu0_L2C PREFETCH     ACCESS:    1061085 HIT:      73806 MISS:     987279
cpu0_L2C WRITE        ACCESS:      13072 HIT:      13065 MISS:          7
cpu0_L2C TRANSLATION  ACCESS:       4817 HIT:       4405 MISS:        412
cpu0_L2C PREFETCH REQUESTED:     722194 ISSUED:     722194 USEFUL:     165904 USELESS:      17775
cpu0_L2C AVERAGE MISS LATENCY: 498.8 cycles
cpu0_STLB TOTAL        ACCESS:    3028267 HIT:    3023459 MISS:       4808
cpu0_STLB LOAD         ACCESS:    3028267 HIT:    3023459 MISS:       4808
cpu0_STLB RFO          ACCESS:          0 HIT:          0 MISS:          0
cpu0_STLB PREFETCH     ACCESS:          0 HIT:          0 MISS:          0
cpu0_STLB WRITE        ACCESS:          0 HIT:          0 MISS:          0
cpu0_STLB TRANSLATION  ACCESS:          0 HIT:          0 MISS:          0
cpu0_STLB PREFETCH REQUESTED:          0 ISSUED:          0 USEFUL:          0 USELESS:          0
cpu0_STLB AVERAGE MISS LATENCY: 419.6 cycles

DRAM Statistics

Channel 0 RQ ROW_BUFFER_HIT:     294218
  ROW_BUFFER_MISS:    1804938
 AVG DBUS CONGESTED CYCLE: 3.963
WQ ROW_BUFFER_HIT: Channel 0 
  ROW_BUFFER_MISS:       1889
  FULL:       8245
