WARNING: physical memory size is smaller than virtual memory size.

*** ChampSim Multicore Out-of-Order Simulator ***
Warmup Instructions: 25000000
Simulation Instructions: 25000000
Number of CPUs: 1
Page size: 4096

Off-chip DRAM Size: 4 GiB Channels: 1 Width: 64-bit Data Race: 800 MT/s
Heartbeat CPU 0 instructions: 10000000 cycles: 2500129 heartbeat IPC: 4 cumulative IPC: 4 (Simulation time: 00 hr 00 min 31 sec)
Heartbeat CPU 0 instructions: 20000002 cycles: 5000208 heartbeat IPC: 4 cumulative IPC: 4 (Simulation time: 00 hr 01 min 13 sec)
Warmup finished CPU 0 instructions: 25000002 cycles: 6250209 cumulative IPC: 4 (Simulation time: 00 hr 01 min 41 sec)
Warmup complete CPU 0 instructions: 25000002 cycles: 6250209 cumulative IPC: 4 (Simulation time: 00 hr 01 min 41 sec)
Heartbeat CPU 0 instructions: 30000000 cycles: 36827313 heartbeat IPC: 0.3142 cumulative IPC: 0.1635 (Simulation time: 00 hr 06 min 07 sec)
Heartbeat CPU 0 instructions: 40000000 cycles: 97561090 heartbeat IPC: 0.1647 cumulative IPC: 0.1643 (Simulation time: 00 hr 13 min 45 sec)
Heartbeat CPU 0 instructions: 50000001 cycles: 158190091 heartbeat IPC: 0.1649 cumulative IPC: 0.1645 (Simulation time: 00 hr 18 min 09 sec)
Simulation finished CPU 0 instructions: 25000003 cycles: 151939884 cumulative IPC: 0.1645 (Simulation time: 00 hr 18 min 09 sec)
Simulation complete CPU 0 instructions: 25000003 cycles: 151939884 cumulative IPC: 0.1645 (Simulation time: 00 hr 18 min 09 sec)

ChampSim completed all CPUs

=== Simulation ===
CPU 0 runs ./gap/pr-3.trace.gz
Region of Interest Statistics

CPU 0 cumulative IPC: 0.1645 instructions: 25000003 cycles: 151939884
CPU 0 Branch Prediction Accuracy: 96.41% MPKI: 6.854 Average ROB Occupancy at Mispredict: 274.1
Branch type MPKI
BRANCH_DIRECT_JUMP: 0
BRANCH_INDIRECT: 0
BRANCH_CONDITIONAL: 6.85
BRANCH_DIRECT_CALL: 0
BRANCH_INDIRECT_CALL: 0
BRANCH_RETURN: 0

LLC TOTAL        ACCESS:    4686832 HIT:    2327759 MISS:    2359073
LLC LOAD         ACCESS:    3871118 HIT:    2184123 MISS:    1686995
LLC RFO          ACCESS:          0 HIT:          0 MISS:          0
LLC PREFETCH     ACCESS:     805246 HIT:     133506 MISS:     671740
LLC WRITE        ACCESS:       9971 HIT:       9670 MISS:        301
LLC TRANSLATION  ACCESS:        497 HIT:        460 MISS:         37
LLC PREFETCH REQUESTED:          0 ISSUED:          0 USEFUL:          0 USELESS:          0
LLC AVERAGE MISS LATENCY: 1097 cycles
cpu0_DTLB TOTAL        ACCESS:    5671628 HIT:    2107278 MISS:    3564350
cpu0_DTLB LOAD         ACCESS:    5671628 HIT:    2107278 MISS:    3564350
cpu0_DTLB RFO          ACCESS:          0 HIT:          0 MISS:          0
cpu0_DTLB PREFETCH     ACCESS:          0 HIT:          0 MISS:          0
cpu0_DTLB WRITE        ACCESS:          0 HIT:          0 MISS:          0
cpu0_DTLB TRANSLATION  ACCESS:          0 HIT:          0 MISS:          0
cpu0_DTLB PREFETCH REQUESTED:          0 ISSUED:          0 USEFUL:          0 USELESS:          0
cpu0_DTLB AVERAGE MISS LATENCY: 6.433 cycles
cpu0_ITLB TOTAL        ACCESS:          0 HIT:          0 MISS:          0
cpu0_ITLB LOAD         ACCESS:          0 HIT:          0 MISS:          0
cpu0_ITLB RFO          ACCESS:          0 HIT:          0 MISS:          0
cpu0_ITLB PREFETCH     ACCESS:          0 HIT:          0 MISS:          0
cpu0_ITLB WRITE        ACCESS:          0 HIT:          0 MISS:          0
cpu0_ITLB TRANSLATION  ACCESS:          0 HIT:          0 MISS:          0
cpu0_ITLB PREFETCH REQUESTED:          0 ISSUED:          0 USEFUL:          0 USELESS:          0
cpu0_ITLB AVERAGE MISS LATENCY: -nan cycles
cpu0_L1D TOTAL        ACCESS:    7016680 HIT:    1458407 MISS:    5558273
cpu0_L1D LOAD         ACCESS:    5549469 HIT:     824107 MISS:    4725362
cpu0_L1D RFO          ACCESS:          0 HIT:          0 MISS:          0
cpu0_L1D PREFETCH     ACCESS:    1227004 HIT:     399416 MISS:     827588
cpu0_L1D WRITE        ACCESS:     235391 HIT:     234870 MISS:        521
cpu0_L1D TRANSLATION  ACCESS:       4816 HIT:         14 MISS:       4802
cpu0_L1D PREFETCH REQUESTED:  143927459 ISSUED:    1227004 USEFUL:      58235 USELESS:     255088
cpu0_L1D AVERAGE MISS LATENCY: 429.8 cycles
cpu0_L1I TOTAL        ACCESS:          0 HIT:          0 MISS:          0
cpu0_L1I LOAD         ACCESS:          0 HIT:          0 MISS:          0
cpu0_L1I RFO          ACCESS:          0 HIT:          0 MISS:          0
cpu0_L1I PREFETCH     ACCESS:          0 HIT:          0 MISS:          0
cpu0_L1I WRITE        ACCESS:          0 HIT:          0 MISS:          0
cpu0_L1I TRANSLATION  ACCESS:          0 HIT:          0 MISS:          0
cpu0_L1I PREFETCH REQUESTED:          0 ISSUED:          0 USEFUL:          0 USELESS:          0
cpu0_L1I AVERAGE MISS LATENCY: -nan cycles
cpu0_L2C TOTAL        ACCESS:    5629792 HIT:     740556 MISS:    4889236
cpu0_L2C LOAD         ACCESS:    4568293 HIT:     657132 MISS:    3911161
cpu0_L2C RFO          ACCESS:        439 HIT:        439 MISS:          0
cpu0_L2C PREFETCH     ACCESS:    1042399 HIT:      65109 MISS:     977290
cpu0_L2C WRITE        ACCESS:      13859 HIT:      13571 MISS:        288
cpu0_L2C TRANSLATION  ACCESS:       4802 HIT:       4305 MISS:        497
cpu0_L2C PREFETCH REQUESTED:     729028 ISSUED:     729028 USEFUL:     167221 USELESS:      15232
cpu0_L2C AVERAGE MISS LATENCY: 504.8 cycles
cpu0_STLB TOTAL        ACCESS:    3044868 HIT:    3040061 MISS:       4807
cpu0_STLB LOAD         ACCESS:    3044868 HIT:    3040061 MISS:       4807
cpu0_STLB RFO          ACCESS:          0 HIT:          0 MISS:          0
cpu0_STLB PREFETCH     ACCESS:          0 HIT:          0 MISS:          0
cpu0_STLB WRITE        ACCESS:          0 HIT:          0 MISS:          0
cpu0_STLB TRANSLATION  ACCESS:          0 HIT:          0 MISS:          0
cpu0_STLB PREFETCH REQUESTED:          0 ISSUED:          0 USEFUL:          0 USELESS:          0
cpu0_STLB AVERAGE MISS LATENCY: 422.3 cycles

DRAM Statistics

Channel 0 RQ ROW_BUFFER_HIT:     286617
  ROW_BUFFER_MISS:    1829320
 AVG DBUS CONGESTED CYCLE: 3.964
WQ ROW_BUFFER_HIT: Channel 0 
  ROW_BUFFER_MISS:       1612
  FULL:       8187
