WARNING: physical memory size is smaller than virtual memory size.

*** ChampSim Multicore Out-of-Order Simulator ***
Warmup Instructions: 25000000
Simulation Instructions: 25000000
Number of CPUs: 1
Page size: 4096

Off-chip DRAM Size: 4 GiB Channels: 1 Width: 64-bit Data Race: 800 MT/s
Heartbeat CPU 0 instructions: 10000000 cycles: 2500133 heartbeat IPC: 4 cumulative IPC: 4 (Simulation time: 00 hr 00 min 30 sec)
Heartbeat CPU 0 instructions: 20000002 cycles: 5000211 heartbeat IPC: 4 cumulative IPC: 4 (Simulation time: 00 hr 01 min 10 sec)
Warmup finished CPU 0 instructions: 25000002 cycles: 6250212 cumulative IPC: 4 (Simulation time: 00 hr 01 min 35 sec)
Warmup complete CPU 0 instructions: 25000002 cycles: 6250212 cumulative IPC: 4 (Simulation time: 00 hr 01 min 35 sec)
Heartbeat CPU 0 instructions: 30000002 cycles: 38747580 heartbeat IPC: 0.2963 cumulative IPC: 0.1539 (Simulation time: 00 hr 06 min 29 sec)
Heartbeat CPU 0 instructions: 40000001 cycles: 102595756 heartbeat IPC: 0.1566 cumulative IPC: 0.1557 (Simulation time: 00 hr 14 min 12 sec)
Heartbeat CPU 0 instructions: 50000002 cycles: 166480503 heartbeat IPC: 0.1565 cumulative IPC: 0.156 (Simulation time: 00 hr 18 min 35 sec)
Simulation finished CPU 0 instructions: 25000000 cycles: 160230292 cumulative IPC: 0.156 (Simulation time: 00 hr 18 min 35 sec)
Simulation complete CPU 0 instructions: 25000000 cycles: 160230292 cumulative IPC: 0.156 (Simulation time: 00 hr 18 min 35 sec)

ChampSim completed all CPUs

=== Simulation ===
CPU 0 runs ./gap/pr-5.trace.gz
Region of Interest Statistics

CPU 0 cumulative IPC: 0.156 instructions: 25000000 cycles: 160230292
CPU 0 Branch Prediction Accuracy: 96.41% MPKI: 6.854 Average ROB Occupancy at Mispredict: 267.1
Branch type MPKI
BRANCH_DIRECT_JUMP: 0
BRANCH_INDIRECT: 0
BRANCH_CONDITIONAL: 6.85
BRANCH_DIRECT_CALL: 0
BRANCH_INDIRECT_CALL: 0
BRANCH_RETURN: 0

LLC TOTAL        ACCESS:    4745197 HIT:    2249322 MISS:    2495875
LLC LOAD         ACCESS:    3942958 HIT:    2136887 MISS:    1806071
LLC RFO          ACCESS:          0 HIT:          0 MISS:          0
LLC PREFETCH     ACCESS:     792438 HIT:     103063 MISS:     689375
LLC WRITE        ACCESS:       9291 HIT:       8880 MISS:        411
LLC TRANSLATION  ACCESS:        510 HIT:        492 MISS:         18
LLC PREFETCH REQUESTED:          0 ISSUED:          0 USEFUL:          0 USELESS:          0
LLC AVERAGE MISS LATENCY: 1102 cycles
cpu0_DTLB TOTAL        ACCESS:    5606223 HIT:    2057617 MISS:    3548606
cpu0_DTLB LOAD         ACCESS:    5606223 HIT:    2057617 MISS:    3548606
cpu0_DTLB RFO          ACCESS:          0 HIT:          0 MISS:          0
cpu0_DTLB PREFETCH     ACCESS:          0 HIT:          0 MISS:          0
cpu0_DTLB WRITE        ACCESS:          0 HIT:          0 MISS:          0
cpu0_DTLB TRANSLATION  ACCESS:          0 HIT:          0 MISS:          0
cpu0_DTLB PREFETCH REQUESTED:          0 ISSUED:          0 USEFUL:          0 USELESS:          0
cpu0_DTLB AVERAGE MISS LATENCY: 6.462 cycles
cpu0_ITLB TOTAL        ACCESS:          0 HIT:          0 MISS:          0
cpu0_ITLB LOAD         ACCESS:          0 HIT:          0 MISS:          0
cpu0_ITLB RFO          ACCESS:          0 HIT:          0 MISS:          0
cpu0_ITLB PREFETCH     ACCESS:          0 HIT:          0 MISS:          0
cpu0_ITLB WRITE        ACCESS:          0 HIT:          0 MISS:          0
cpu0_ITLB TRANSLATION  ACCESS:          0 HIT:          0 MISS:          0
cpu0_ITLB PREFETCH REQUESTED:          0 ISSUED:          0 USEFUL:          0 USELESS:          0
cpu0_ITLB AVERAGE MISS LATENCY: -nan cycles
cpu0_L1D TOTAL        ACCESS:    6767569 HIT:    1402694 MISS:    5364875
cpu0_L1D LOAD         ACCESS:    5462824 HIT:     797168 MISS:    4665656
cpu0_L1D RFO          ACCESS:          0 HIT:          0 MISS:          0
cpu0_L1D PREFETCH     ACCESS:    1065891 HIT:     371486 MISS:     694405
cpu0_L1D WRITE        ACCESS:     234039 HIT:     234039 MISS:          0
cpu0_L1D TRANSLATION  ACCESS:       4815 HIT:          1 MISS:       4814
cpu0_L1D PREFETCH REQUESTED:  152990420 ISSUED:    1065890 USEFUL:      53583 USELESS:     207304
cpu0_L1D AVERAGE MISS LATENCY: 471.6 cycles
cpu0_L1I TOTAL        ACCESS:          0 HIT:          0 MISS:          0
cpu0_L1I LOAD         ACCESS:          0 HIT:          0 MISS:          0
cpu0_L1I RFO          ACCESS:          0 HIT:          0 MISS:          0
cpu0_L1I PREFETCH     ACCESS:          0 HIT:          0 MISS:          0
cpu0_L1I WRITE        ACCESS:          0 HIT:          0 MISS:          0
cpu0_L1I TRANSLATION  ACCESS:          0 HIT:          0 MISS:          0
cpu0_L1I PREFETCH REQUESTED:          0 ISSUED:          0 USEFUL:          0 USELESS:          0
cpu0_L1I AVERAGE MISS LATENCY: -nan cycles
cpu0_L2C TOTAL        ACCESS:    5612466 HIT:     672330 MISS:    4940136
cpu0_L2C LOAD         ACCESS:    4567588 HIT:     592965 MISS:    3974623
cpu0_L2C RFO          ACCESS:          0 HIT:          0 MISS:          0
cpu0_L2C PREFETCH     ACCESS:    1027370 HIT:      62367 MISS:     965003
cpu0_L2C WRITE        ACCESS:      12694 HIT:      12694 MISS:          0
cpu0_L2C TRANSLATION  ACCESS:       4814 HIT:       4304 MISS:        510
cpu0_L2C PREFETCH REQUESTED:     766483 ISSUED:     766479 USEFUL:     176532 USELESS:      10270
cpu0_L2C AVERAGE MISS LATENCY: 530 cycles
cpu0_STLB TOTAL        ACCESS:    3039115 HIT:    3034308 MISS:       4807
cpu0_STLB LOAD         ACCESS:    3039115 HIT:    3034308 MISS:       4807
cpu0_STLB RFO          ACCESS:          0 HIT:          0 MISS:          0
cpu0_STLB PREFETCH     ACCESS:          0 HIT:          0 MISS:          0
cpu0_STLB WRITE        ACCESS:          0 HIT:          0 MISS:          0
cpu0_STLB TRANSLATION  ACCESS:          0 HIT:          0 MISS:          0
cpu0_STLB PREFETCH REQUESTED:          0 ISSUED:          0 USEFUL:          0 USELESS:          0
cpu0_STLB AVERAGE MISS LATENCY: 437.5 cycles

DRAM Statistics

Channel 0 RQ ROW_BUFFER_HIT:     327932
  ROW_BUFFER_MISS:    1916412
 AVG DBUS CONGESTED CYCLE: 3.964
WQ ROW_BUFFER_HIT: Channel 0 
  ROW_BUFFER_MISS:       1493
  FULL:       7955
