WARNING: physical memory size is smaller than virtual memory size.

*** ChampSim Multicore Out-of-Order Simulator ***
Warmup Instructions: 25000000
Simulation Instructions: 25000000
Number of CPUs: 1
Page size: 4096

Off-chip DRAM Size: 4 GiB Channels: 1 Width: 64-bit Data Race: 800 MT/s
Heartbeat CPU 0 instructions: 10000003 cycles: 2501360 heartbeat IPC: 3.998 cumulative IPC: 3.998 (Simulation time: 00 hr 00 min 32 sec)
Heartbeat CPU 0 instructions: 20000003 cycles: 5005138 heartbeat IPC: 3.994 cumulative IPC: 3.996 (Simulation time: 00 hr 01 min 08 sec)
Warmup finished CPU 0 instructions: 25000002 cycles: 6257063 cumulative IPC: 3.995 (Simulation time: 00 hr 01 min 29 sec)
Warmup complete CPU 0 instructions: 25000002 cycles: 6257063 cumulative IPC: 3.995 (Simulation time: 00 hr 01 min 29 sec)
Heartbeat CPU 0 instructions: 30000001 cycles: 22071739 heartbeat IPC: 0.5859 cumulative IPC: 0.3162 (Simulation time: 00 hr 03 min 21 sec)
Heartbeat CPU 0 instructions: 40000000 cycles: 52885878 heartbeat IPC: 0.3245 cumulative IPC: 0.3217 (Simulation time: 00 hr 07 min 11 sec)
Heartbeat CPU 0 instructions: 50000001 cycles: 82810885 heartbeat IPC: 0.3342 cumulative IPC: 0.3266 (Simulation time: 00 hr 10 min 40 sec)
Simulation finished CPU 0 instructions: 25000000 cycles: 76553824 cumulative IPC: 0.3266 (Simulation time: 00 hr 10 min 40 sec)
Simulation complete CPU 0 instructions: 25000000 cycles: 76553824 cumulative IPC: 0.3266 (Simulation time: 00 hr 10 min 40 sec)

ChampSim completed all CPUs

=== Simulation ===
CPU 0 runs ./gap/sssp-3.trace.gz
Region of Interest Statistics

CPU 0 cumulative IPC: 0.3266 instructions: 25000000 cycles: 76553824
CPU 0 Branch Prediction Accuracy: 94.31% MPKI: 8.383 Average ROB Occupancy at Mispredict: 74.15
Branch type MPKI
BRANCH_DIRECT_JUMP: 0
BRANCH_INDIRECT: 0
BRANCH_CONDITIONAL: 8.38
BRANCH_DIRECT_CALL: 0
BRANCH_INDIRECT_CALL: 0
BRANCH_RETURN: 0

LLC TOTAL        ACCESS:    1755118 HIT:     987169 MISS:     767949
LLC LOAD         ACCESS:     889034 HIT:     533265 MISS:     355769
LLC RFO          ACCESS:      53740 HIT:      26638 MISS:      27102
LLC PREFETCH     ACCESS:     551822 HIT:     177604 MISS:     374218
LLC WRITE        ACCESS:     256660 HIT:     248873 MISS:       7787
LLC TRANSLATION  ACCESS:       3862 HIT:        789 MISS:       3073
LLC PREFETCH REQUESTED:          0 ISSUED:          0 USEFUL:          0 USELESS:          0
LLC AVERAGE MISS LATENCY: 421.8 cycles
cpu0_DTLB TOTAL        ACCESS:    5715919 HIT:    5112763 MISS:     603156
cpu0_DTLB LOAD         ACCESS:    5715919 HIT:    5112763 MISS:     603156
cpu0_DTLB RFO          ACCESS:          0 HIT:          0 MISS:          0
cpu0_DTLB PREFETCH     ACCESS:          0 HIT:          0 MISS:          0
cpu0_DTLB WRITE        ACCESS:          0 HIT:          0 MISS:          0
cpu0_DTLB TRANSLATION  ACCESS:          0 HIT:          0 MISS:          0
cpu0_DTLB PREFETCH REQUESTED:          0 ISSUED:          0 USEFUL:          0 USELESS:          0
cpu0_DTLB AVERAGE MISS LATENCY: 8.223 cycles
cpu0_ITLB TOTAL        ACCESS:       1745 HIT:       1745 MISS:          0
cpu0_ITLB LOAD         ACCESS:       1745 HIT:       1745 MISS:          0
cpu0_ITLB RFO          ACCESS:          0 HIT:          0 MISS:          0
cpu0_ITLB PREFETCH     ACCESS:          0 HIT:          0 MISS:          0
cpu0_ITLB WRITE        ACCESS:          0 HIT:          0 MISS:          0
cpu0_ITLB TRANSLATION  ACCESS:          0 HIT:          0 MISS:          0
cpu0_ITLB PREFETCH REQUESTED:          0 ISSUED:          0 USEFUL:          0 USELESS:          0
cpu0_ITLB AVERAGE MISS LATENCY: -nan cycles
cpu0_L1D TOTAL        ACCESS:   10519687 HIT:    8306666 MISS:    2213021
cpu0_L1D LOAD         ACCESS:    7008715 HIT:    5709921 MISS:    1298794
cpu0_L1D RFO          ACCESS:          0 HIT:          0 MISS:          0
cpu0_L1D PREFETCH     ACCESS:    2820241 HIT:    2124568 MISS:     695673
cpu0_L1D WRITE        ACCESS:     684757 HIT:     471876 MISS:     212881
cpu0_L1D TRANSLATION  ACCESS:       5974 HIT:        301 MISS:       5673
cpu0_L1D PREFETCH REQUESTED:    7947984 ISSUED:    2820241 USEFUL:     149429 USELESS:     325045
cpu0_L1D AVERAGE MISS LATENCY: 144.2 cycles
cpu0_L1I TOTAL        ACCESS:       1804 HIT:       1804 MISS:          0
cpu0_L1I LOAD         ACCESS:       1804 HIT:       1804 MISS:          0
cpu0_L1I RFO          ACCESS:          0 HIT:          0 MISS:          0
cpu0_L1I PREFETCH     ACCESS:          0 HIT:          0 MISS:          0
cpu0_L1I WRITE        ACCESS:          0 HIT:          0 MISS:          0
cpu0_L1I TRANSLATION  ACCESS:          0 HIT:          0 MISS:          0
cpu0_L1I PREFETCH REQUESTED:          0 ISSUED:          0 USEFUL:          0 USELESS:          0
cpu0_L1I AVERAGE MISS LATENCY: -nan cycles
cpu0_L2C TOTAL        ACCESS:    2226583 HIT:     668052 MISS:    1558531
cpu0_L2C LOAD         ACCESS:     998098 HIT:      97739 MISS:     900359
cpu0_L2C RFO          ACCESS:     157590 HIT:     103850 MISS:      53740
cpu0_L2C PREFETCH     ACCESS:     657109 HIT:      58929 MISS:     598180
cpu0_L2C WRITE        ACCESS:     408129 HIT:     405739 MISS:       2390
cpu0_L2C TRANSLATION  ACCESS:       5657 HIT:       1795 MISS:       3862
cpu0_L2C PREFETCH REQUESTED:     182663 ISSUED:     182650 USEFUL:      29853 USELESS:      72087
cpu0_L2C AVERAGE MISS LATENCY: 224.6 cycles
cpu0_STLB TOTAL        ACCESS:     437211 HIT:     431796 MISS:       5415
cpu0_STLB LOAD         ACCESS:     437211 HIT:     431796 MISS:       5415
cpu0_STLB RFO          ACCESS:          0 HIT:          0 MISS:          0
cpu0_STLB PREFETCH     ACCESS:          0 HIT:          0 MISS:          0
cpu0_STLB WRITE        ACCESS:          0 HIT:          0 MISS:          0
cpu0_STLB TRANSLATION  ACCESS:          0 HIT:          0 MISS:          0
cpu0_STLB PREFETCH REQUESTED:          0 ISSUED:          0 USEFUL:          0 USELESS:          0
cpu0_STLB AVERAGE MISS LATENCY: 412.5 cycles

DRAM Statistics

Channel 0 RQ ROW_BUFFER_HIT:     232844
  ROW_BUFFER_MISS:     493651
 AVG DBUS CONGESTED CYCLE: 3.894
WQ ROW_BUFFER_HIT: Channel 0 
  ROW_BUFFER_MISS:       3245
  FULL:     186537
