WARNING: physical memory size is smaller than virtual memory size.

*** ChampSim Multicore Out-of-Order Simulator ***
Warmup Instructions: 25000000
Simulation Instructions: 25000000
Number of CPUs: 1
Page size: 4096

Off-chip DRAM Size: 4 GiB Channels: 1 Width: 64-bit Data Race: 800 MT/s
Heartbeat CPU 0 instructions: 10000003 cycles: 2502098 heartbeat IPC: 3.997 cumulative IPC: 3.997 (Simulation time: 00 hr 00 min 32 sec)
Heartbeat CPU 0 instructions: 20000003 cycles: 5005534 heartbeat IPC: 3.995 cumulative IPC: 3.996 (Simulation time: 00 hr 01 min 07 sec)
Warmup finished CPU 0 instructions: 25000003 cycles: 6257734 cumulative IPC: 3.995 (Simulation time: 00 hr 01 min 28 sec)
Warmup complete CPU 0 instructions: 25000003 cycles: 6257734 cumulative IPC: 3.995 (Simulation time: 00 hr 01 min 28 sec)
Heartbeat CPU 0 instructions: 30000000 cycles: 22506188 heartbeat IPC: 0.5714 cumulative IPC: 0.3077 (Simulation time: 00 hr 03 min 22 sec)
Heartbeat CPU 0 instructions: 40000002 cycles: 53879771 heartbeat IPC: 0.3187 cumulative IPC: 0.315 (Simulation time: 00 hr 07 min 16 sec)
Heartbeat CPU 0 instructions: 50000003 cycles: 82854313 heartbeat IPC: 0.3451 cumulative IPC: 0.3264 (Simulation time: 00 hr 10 min 43 sec)
Simulation finished CPU 0 instructions: 25000000 cycles: 76596580 cumulative IPC: 0.3264 (Simulation time: 00 hr 10 min 43 sec)
Simulation complete CPU 0 instructions: 25000000 cycles: 76596580 cumulative IPC: 0.3264 (Simulation time: 00 hr 10 min 43 sec)

ChampSim completed all CPUs

=== Simulation ===
CPU 0 runs ./gap/sssp-14.trace.gz
Region of Interest Statistics

CPU 0 cumulative IPC: 0.3264 instructions: 25000000 cycles: 76596580
CPU 0 Branch Prediction Accuracy: 94.7% MPKI: 7.805 Average ROB Occupancy at Mispredict: 81.13
Branch type MPKI
BRANCH_DIRECT_JUMP: 4e-05
BRANCH_INDIRECT: 0
BRANCH_CONDITIONAL: 7.8
BRANCH_DIRECT_CALL: 0
BRANCH_INDIRECT_CALL: 0
BRANCH_RETURN: 0

LLC TOTAL        ACCESS:    1893105 HIT:    1087407 MISS:     805698
LLC LOAD         ACCESS:     956862 HIT:     577830 MISS:     379032
LLC RFO          ACCESS:      54618 HIT:      28871 MISS:      25747
LLC PREFETCH     ACCESS:     629464 HIT:     234198 MISS:     395266
LLC WRITE        ACCESS:     247755 HIT:     245714 MISS:       2041
LLC TRANSLATION  ACCESS:       4406 HIT:        794 MISS:       3612
LLC PREFETCH REQUESTED:          0 ISSUED:          0 USEFUL:          0 USELESS:          0
LLC AVERAGE MISS LATENCY: 431.3 cycles
cpu0_DTLB TOTAL        ACCESS:    5582948 HIT:    4909641 MISS:     673307
cpu0_DTLB LOAD         ACCESS:    5582948 HIT:    4909641 MISS:     673307
cpu0_DTLB RFO          ACCESS:          0 HIT:          0 MISS:          0
cpu0_DTLB PREFETCH     ACCESS:          0 HIT:          0 MISS:          0
cpu0_DTLB WRITE        ACCESS:          0 HIT:          0 MISS:          0
cpu0_DTLB TRANSLATION  ACCESS:          0 HIT:          0 MISS:          0
cpu0_DTLB PREFETCH REQUESTED:          0 ISSUED:          0 USEFUL:          0 USELESS:          0
cpu0_DTLB AVERAGE MISS LATENCY: 8.286 cycles
cpu0_ITLB TOTAL        ACCESS:       1722 HIT:       1722 MISS:          0
cpu0_ITLB LOAD         ACCESS:       1722 HIT:       1722 MISS:          0
cpu0_ITLB RFO          ACCESS:          0 HIT:          0 MISS:          0
cpu0_ITLB PREFETCH     ACCESS:          0 HIT:          0 MISS:          0
cpu0_ITLB WRITE        ACCESS:          0 HIT:          0 MISS:          0
cpu0_ITLB TRANSLATION  ACCESS:          0 HIT:          0 MISS:          0
cpu0_ITLB PREFETCH REQUESTED:          0 ISSUED:          0 USEFUL:          0 USELESS:          0
cpu0_ITLB AVERAGE MISS LATENCY: -nan cycles
cpu0_L1D TOTAL        ACCESS:   10160176 HIT:    7704214 MISS:    2455962
cpu0_L1D LOAD         ACCESS:    6588258 HIT:    5199123 MISS:    1389135
cpu0_L1D RFO          ACCESS:          0 HIT:          0 MISS:          0
cpu0_L1D PREFETCH     ACCESS:    2925695 HIT:    2069303 MISS:     856392
cpu0_L1D WRITE        ACCESS:     639788 HIT:     435504 MISS:     204284
cpu0_L1D TRANSLATION  ACCESS:       6435 HIT:        284 MISS:       6151
cpu0_L1D PREFETCH REQUESTED:    7491672 ISSUED:    2925690 USEFUL:     136479 USELESS:     448903
cpu0_L1D AVERAGE MISS LATENCY: 144.9 cycles
cpu0_L1I TOTAL        ACCESS:       1791 HIT:       1791 MISS:          0
cpu0_L1I LOAD         ACCESS:       1791 HIT:       1791 MISS:          0
cpu0_L1I RFO          ACCESS:          0 HIT:          0 MISS:          0
cpu0_L1I PREFETCH     ACCESS:          0 HIT:          0 MISS:          0
cpu0_L1I WRITE        ACCESS:          0 HIT:          0 MISS:          0
cpu0_L1I TRANSLATION  ACCESS:          0 HIT:          0 MISS:          0
cpu0_L1I PREFETCH REQUESTED:          0 ISSUED:          0 USEFUL:          0 USELESS:          0
cpu0_L1I AVERAGE MISS LATENCY: -nan cycles
cpu0_L2C TOTAL        ACCESS:    2333939 HIT:     657877 MISS:    1676062
cpu0_L2C LOAD         ACCESS:    1064668 HIT:     102468 MISS:     962200
cpu0_L2C RFO          ACCESS:     152416 HIT:      97798 MISS:      54618
cpu0_L2C PREFETCH     ACCESS:     715295 HIT:      62456 MISS:     652839
cpu0_L2C WRITE        ACCESS:     395430 HIT:     393431 MISS:       1999
cpu0_L2C TRANSLATION  ACCESS:       6130 HIT:       1724 MISS:       4406
cpu0_L2C PREFETCH REQUESTED:     129995 ISSUED:     129981 USEFUL:      16705 USELESS:      55803
cpu0_L2C AVERAGE MISS LATENCY: 225.6 cycles
cpu0_STLB TOTAL        ACCESS:     487423 HIT:     481667 MISS:       5756
cpu0_STLB LOAD         ACCESS:     487423 HIT:     481667 MISS:       5756
cpu0_STLB RFO          ACCESS:          0 HIT:          0 MISS:          0
cpu0_STLB PREFETCH     ACCESS:          0 HIT:          0 MISS:          0
cpu0_STLB WRITE        ACCESS:          0 HIT:          0 MISS:          0
cpu0_STLB TRANSLATION  ACCESS:          0 HIT:          0 MISS:          0
cpu0_STLB PREFETCH REQUESTED:          0 ISSUED:          0 USEFUL:          0 USELESS:          0
cpu0_STLB AVERAGE MISS LATENCY: 440.9 cycles

DRAM Statistics

Channel 0 RQ ROW_BUFFER_HIT:     266206
  ROW_BUFFER_MISS:     504867
 AVG DBUS CONGESTED CYCLE: 3.886
WQ ROW_BUFFER_HIT: Channel 0 
  ROW_BUFFER_MISS:       3035
  FULL:     172542
