WARNING: physical memory size is smaller than virtual memory size.

*** ChampSim Multicore Out-of-Order Simulator ***
Warmup Instructions: 25000000
Simulation Instructions: 25000000
Number of CPUs: 1
Page size: 4096

Off-chip DRAM Size: 4 GiB Channels: 1 Width: 64-bit Data Race: 800 MT/s
Heartbeat CPU 0 instructions: 10000003 cycles: 2501469 heartbeat IPC: 3.998 cumulative IPC: 3.998 (Simulation time: 00 hr 00 min 33 sec)
Heartbeat CPU 0 instructions: 20000000 cycles: 5005210 heartbeat IPC: 3.994 cumulative IPC: 3.996 (Simulation time: 00 hr 01 min 08 sec)
Warmup finished CPU 0 instructions: 25000001 cycles: 6257388 cumulative IPC: 3.995 (Simulation time: 00 hr 01 min 30 sec)
Warmup complete CPU 0 instructions: 25000001 cycles: 6257388 cumulative IPC: 3.995 (Simulation time: 00 hr 01 min 30 sec)
Heartbeat CPU 0 instructions: 30000002 cycles: 22993805 heartbeat IPC: 0.5559 cumulative IPC: 0.2987 (Simulation time: 00 hr 03 min 17 sec)
Heartbeat CPU 0 instructions: 40000003 cycles: 53578788 heartbeat IPC: 0.327 cumulative IPC: 0.317 (Simulation time: 00 hr 06 min 48 sec)
Heartbeat CPU 0 instructions: 50000000 cycles: 82693487 heartbeat IPC: 0.3435 cumulative IPC: 0.3271 (Simulation time: 00 hr 10 min 15 sec)
Simulation finished CPU 0 instructions: 25000003 cycles: 76436101 cumulative IPC: 0.3271 (Simulation time: 00 hr 10 min 15 sec)
Simulation complete CPU 0 instructions: 25000003 cycles: 76436101 cumulative IPC: 0.3271 (Simulation time: 00 hr 10 min 15 sec)

ChampSim completed all CPUs

=== Simulation ===
CPU 0 runs ./gap/sssp-10.trace.gz
Region of Interest Statistics

CPU 0 cumulative IPC: 0.3271 instructions: 25000003 cycles: 76436101
CPU 0 Branch Prediction Accuracy: 94.52% MPKI: 8.069 Average ROB Occupancy at Mispredict: 78.45
Branch type MPKI
BRANCH_DIRECT_JUMP: 0
BRANCH_INDIRECT: 0
BRANCH_CONDITIONAL: 8.07
BRANCH_DIRECT_CALL: 0
BRANCH_INDIRECT_CALL: 0
BRANCH_RETURN: 0

LLC TOTAL        ACCESS:    1878202 HIT:    1069541 MISS:     808661
LLC LOAD         ACCESS:     928602 HIT:     563823 MISS:     364779
LLC RFO          ACCESS:      55220 HIT:      28315 MISS:      26905
LLC PREFETCH     ACCESS:     637615 HIT:     232269 MISS:     405346
LLC WRITE        ACCESS:     252711 HIT:     244503 MISS:       8208
LLC TRANSLATION  ACCESS:       4054 HIT:        631 MISS:       3423
LLC PREFETCH REQUESTED:          0 ISSUED:          0 USEFUL:          0 USELESS:          0
LLC AVERAGE MISS LATENCY: 425.9 cycles
cpu0_DTLB TOTAL        ACCESS:    5611195 HIT:    5002252 MISS:     608943
cpu0_DTLB LOAD         ACCESS:    5611195 HIT:    5002252 MISS:     608943
cpu0_DTLB RFO          ACCESS:          0 HIT:          0 MISS:          0
cpu0_DTLB PREFETCH     ACCESS:          0 HIT:          0 MISS:          0
cpu0_DTLB WRITE        ACCESS:          0 HIT:          0 MISS:          0
cpu0_DTLB TRANSLATION  ACCESS:          0 HIT:          0 MISS:          0
cpu0_DTLB PREFETCH REQUESTED:          0 ISSUED:          0 USEFUL:          0 USELESS:          0
cpu0_DTLB AVERAGE MISS LATENCY: 8.588 cycles
cpu0_ITLB TOTAL        ACCESS:       1876 HIT:       1876 MISS:          0
cpu0_ITLB LOAD         ACCESS:       1876 HIT:       1876 MISS:          0
cpu0_ITLB RFO          ACCESS:          0 HIT:          0 MISS:          0
cpu0_ITLB PREFETCH     ACCESS:          0 HIT:          0 MISS:          0
cpu0_ITLB WRITE        ACCESS:          0 HIT:          0 MISS:          0
cpu0_ITLB TRANSLATION  ACCESS:          0 HIT:          0 MISS:          0
cpu0_ITLB PREFETCH REQUESTED:          0 ISSUED:          0 USEFUL:          0 USELESS:          0
cpu0_ITLB AVERAGE MISS LATENCY: -nan cycles
cpu0_L1D TOTAL        ACCESS:   10264422 HIT:    7800171 MISS:    2464251
cpu0_L1D LOAD         ACCESS:    6600034 HIT:    5236218 MISS:    1363816
cpu0_L1D RFO          ACCESS:          0 HIT:          0 MISS:          0
cpu0_L1D PREFETCH     ACCESS:    3000792 HIT:    2114784 MISS:     886008
cpu0_L1D WRITE        ACCESS:     657495 HIT:     448907 MISS:     208588
cpu0_L1D TRANSLATION  ACCESS:       6101 HIT:        262 MISS:       5839
cpu0_L1D PREFETCH REQUESTED:    7488594 ISSUED:    3000784 USEFUL:     145707 USELESS:     425036
cpu0_L1D AVERAGE MISS LATENCY: 139.6 cycles
cpu0_L1I TOTAL        ACCESS:       1967 HIT:       1967 MISS:          0
cpu0_L1I LOAD         ACCESS:       1967 HIT:       1967 MISS:          0
cpu0_L1I RFO          ACCESS:          0 HIT:          0 MISS:          0
cpu0_L1I PREFETCH     ACCESS:          0 HIT:          0 MISS:          0
cpu0_L1I WRITE        ACCESS:          0 HIT:          0 MISS:          0
cpu0_L1I TRANSLATION  ACCESS:          0 HIT:          0 MISS:          0
cpu0_L1I PREFETCH REQUESTED:          0 ISSUED:          0 USEFUL:          0 USELESS:          0
cpu0_L1I AVERAGE MISS LATENCY: -nan cycles
cpu0_L2C TOTAL        ACCESS:    2333621 HIT:     663097 MISS:    1670524
cpu0_L2C LOAD         ACCESS:    1032512 HIT:      96145 MISS:     936367
cpu0_L2C RFO          ACCESS:     155415 HIT:     100195 MISS:      55220
cpu0_L2C PREFETCH     ACCESS:     735720 HIT:      63064 MISS:     672656
cpu0_L2C WRITE        ACCESS:     404155 HIT:     401928 MISS:       2227
cpu0_L2C TRANSLATION  ACCESS:       5819 HIT:       1765 MISS:       4054
cpu0_L2C PREFETCH REQUESTED:     164985 ISSUED:     164983 USEFUL:      23144 USELESS:      72530
cpu0_L2C AVERAGE MISS LATENCY: 223.7 cycles
cpu0_STLB TOTAL        ACCESS:     444563 HIT:     439145 MISS:       5418
cpu0_STLB LOAD         ACCESS:     444563 HIT:     439145 MISS:       5418
cpu0_STLB RFO          ACCESS:          0 HIT:          0 MISS:          0
cpu0_STLB PREFETCH     ACCESS:          0 HIT:          0 MISS:          0
cpu0_STLB WRITE        ACCESS:          0 HIT:          0 MISS:          0
cpu0_STLB TRANSLATION  ACCESS:          0 HIT:          0 MISS:          0
cpu0_STLB PREFETCH REQUESTED:          0 ISSUED:          0 USEFUL:          0 USELESS:          0
cpu0_STLB AVERAGE MISS LATENCY: 448.2 cycles

DRAM Statistics

Channel 0 RQ ROW_BUFFER_HIT:     270612
  ROW_BUFFER_MISS:     496661
 AVG DBUS CONGESTED CYCLE: 3.885
WQ ROW_BUFFER_HIT: Channel 0 
  ROW_BUFFER_MISS:       2911
  FULL:     179710
