WARNING: physical memory size is smaller than virtual memory size.

*** ChampSim Multicore Out-of-Order Simulator ***
Warmup Instructions: 25000000
Simulation Instructions: 25000000
Number of CPUs: 1
Page size: 4096

Off-chip DRAM Size: 4 GiB Channels: 1 Width: 64-bit Data Race: 800 MT/s
Heartbeat CPU 0 instructions: 10000003 cycles: 3086114 heartbeat IPC: 3.24 cumulative IPC: 3.24 (Simulation time: 00 hr 00 min 40 sec)
Heartbeat CPU 0 instructions: 20000002 cycles: 5589877 heartbeat IPC: 3.994 cumulative IPC: 3.578 (Simulation time: 00 hr 01 min 20 sec)
Warmup finished CPU 0 instructions: 25000001 cycles: 6841404 cumulative IPC: 3.654 (Simulation time: 00 hr 01 min 40 sec)
Warmup complete CPU 0 instructions: 25000001 cycles: 6841404 cumulative IPC: 3.654 (Simulation time: 00 hr 01 min 40 sec)
Heartbeat CPU 0 instructions: 30000000 cycles: 54764307 heartbeat IPC: 0.2034 cumulative IPC: 0.1043 (Simulation time: 00 hr 06 min 08 sec)
Heartbeat CPU 0 instructions: 40000001 cycles: 152026226 heartbeat IPC: 0.1028 cumulative IPC: 0.1033 (Simulation time: 00 hr 12 min 45 sec)
Heartbeat CPU 0 instructions: 50000003 cycles: 249741496 heartbeat IPC: 0.1023 cumulative IPC: 0.1029 (Simulation time: 00 hr 16 min 59 sec)
Simulation finished CPU 0 instructions: 25000002 cycles: 242900093 cumulative IPC: 0.1029 (Simulation time: 00 hr 16 min 59 sec)
Simulation complete CPU 0 instructions: 25000002 cycles: 242900093 cumulative IPC: 0.1029 (Simulation time: 00 hr 16 min 59 sec)

ChampSim completed all CPUs

=== Simulation ===
CPU 0 runs ./gap/bc-0.trace.gz
Region of Interest Statistics

CPU 0 cumulative IPC: 0.1029 instructions: 25000002 cycles: 242900093
CPU 0 Branch Prediction Accuracy: 85.55% MPKI: 27.28 Average ROB Occupancy at Mispredict: 32.82
Branch type MPKI
BRANCH_DIRECT_JUMP: 0
BRANCH_INDIRECT: 0
BRANCH_CONDITIONAL: 27.3
BRANCH_DIRECT_CALL: 0
BRANCH_INDIRECT_CALL: 0
BRANCH_RETURN: 0

LLC TOTAL        ACCESS:    4699162 HIT:    1984875 MISS:    2714287
LLC LOAD         ACCESS:    1837049 HIT:     615876 MISS:    1221173
LLC RFO          ACCESS:      10999 HIT:        292 MISS:      10707
LLC PREFETCH     ACCESS:    2101407 HIT:     629862 MISS:    1471545
LLC WRITE        ACCESS:     647926 HIT:     647913 MISS:         13
LLC TRANSLATION  ACCESS:     101781 HIT:      90932 MISS:      10849
LLC PREFETCH REQUESTED:          0 ISSUED:          0 USEFUL:          0 USELESS:          0
LLC AVERAGE MISS LATENCY: 487.8 cycles
cpu0_DTLB TOTAL        ACCESS:    6834591 HIT:    5864534 MISS:     970057
cpu0_DTLB LOAD         ACCESS:    6834591 HIT:    5864534 MISS:     970057
cpu0_DTLB RFO          ACCESS:          0 HIT:          0 MISS:          0
cpu0_DTLB PREFETCH     ACCESS:          0 HIT:          0 MISS:          0
cpu0_DTLB WRITE        ACCESS:          0 HIT:          0 MISS:          0
cpu0_DTLB TRANSLATION  ACCESS:          0 HIT:          0 MISS:          0
cpu0_DTLB PREFETCH REQUESTED:          0 ISSUED:          0 USEFUL:          0 USELESS:          0
cpu0_DTLB AVERAGE MISS LATENCY: 18.11 cycles
cpu0_ITLB TOTAL        ACCESS:          0 HIT:          0 MISS:          0
cpu0_ITLB LOAD         ACCESS:          0 HIT:          0 MISS:          0
cpu0_ITLB RFO          ACCESS:          0 HIT:          0 MISS:          0
cpu0_ITLB PREFETCH     ACCESS:          0 HIT:          0 MISS:          0
cpu0_ITLB WRITE        ACCESS:          0 HIT:          0 MISS:          0
cpu0_ITLB TRANSLATION  ACCESS:          0 HIT:          0 MISS:          0
cpu0_ITLB PREFETCH REQUESTED:          0 ISSUED:          0 USEFUL:          0 USELESS:          0
cpu0_ITLB AVERAGE MISS LATENCY: -nan cycles
cpu0_L1D TOTAL        ACCESS:   14688872 HIT:    9848809 MISS:    4840063
cpu0_L1D LOAD         ACCESS:    6525994 HIT:    4517670 MISS:    2008324
cpu0_L1D RFO          ACCESS:          0 HIT:          0 MISS:          0
cpu0_L1D PREFETCH     ACCESS:    6508120 HIT:    3927335 MISS:    2580785
cpu0_L1D WRITE        ACCESS:    1318083 HIT:    1286326 MISS:      31757
cpu0_L1D TRANSLATION  ACCESS:     336675 HIT:     117478 MISS:     219197
cpu0_L1D PREFETCH REQUESTED:    7298276 ISSUED:    6508112 USEFUL:     182889 USELESS:    1794552
cpu0_L1D AVERAGE MISS LATENCY: 277 cycles
cpu0_L1I TOTAL        ACCESS:          0 HIT:          0 MISS:          0
cpu0_L1I LOAD         ACCESS:          0 HIT:          0 MISS:          0
cpu0_L1I RFO          ACCESS:          0 HIT:          0 MISS:          0
cpu0_L1I PREFETCH     ACCESS:          0 HIT:          0 MISS:          0
cpu0_L1I WRITE        ACCESS:          0 HIT:          0 MISS:          0
cpu0_L1I TRANSLATION  ACCESS:          0 HIT:          0 MISS:          0
cpu0_L1I PREFETCH REQUESTED:          0 ISSUED:          0 USEFUL:          0 USELESS:          0
cpu0_L1I AVERAGE MISS LATENCY: -nan cycles
cpu0_L2C TOTAL        ACCESS:    4981878 HIT:     876786 MISS:    4105092
cpu0_L2C LOAD         ACCESS:    1896919 HIT:      49362 MISS:    1847557
cpu0_L2C RFO          ACCESS:      15822 HIT:       4823 MISS:      10999
cpu0_L2C PREFETCH     ACCESS:    2196622 HIT:      52577 MISS:    2144045
cpu0_L2C WRITE        ACCESS:     653705 HIT:     652995 MISS:        710
cpu0_L2C TRANSLATION  ACCESS:     218810 HIT:     117029 MISS:     101781
cpu0_L2C PREFETCH REQUESTED:     219132 ISSUED:     219132 USEFUL:      30938 USELESS:     136649
cpu0_L2C AVERAGE MISS LATENCY: 340.6 cycles
cpu0_STLB TOTAL        ACCESS:     733866 HIT:     397205 MISS:     336661
cpu0_STLB LOAD         ACCESS:     733866 HIT:     397205 MISS:     336661
cpu0_STLB RFO          ACCESS:          0 HIT:          0 MISS:          0
cpu0_STLB PREFETCH     ACCESS:          0 HIT:          0 MISS:          0
cpu0_STLB WRITE        ACCESS:          0 HIT:          0 MISS:          0
cpu0_STLB TRANSLATION  ACCESS:          0 HIT:          0 MISS:          0
cpu0_STLB PREFETCH REQUESTED:          0 ISSUED:          0 USEFUL:          0 USELESS:          0
cpu0_STLB AVERAGE MISS LATENCY: 37.12 cycles

DRAM Statistics

Channel 0 RQ ROW_BUFFER_HIT:     851247
  ROW_BUFFER_MISS:    1849493
 AVG DBUS CONGESTED CYCLE: 3.893
WQ ROW_BUFFER_HIT: Channel 0 
  ROW_BUFFER_MISS:       7696
  FULL:     593358
