WARNING: physical memory size is smaller than virtual memory size.

*** ChampSim Multicore Out-of-Order Simulator ***
Warmup Instructions: 25000000
Simulation Instructions: 25000000
Number of CPUs: 1
Page size: 4096

Off-chip DRAM Size: 4 GiB Channels: 1 Width: 64-bit Data Race: 800 MT/s
Heartbeat CPU 0 instructions: 10000003 cycles: 3085796 heartbeat IPC: 3.241 cumulative IPC: 3.241 (Simulation time: 00 hr 00 min 40 sec)
Heartbeat CPU 0 instructions: 20000000 cycles: 5588841 heartbeat IPC: 3.995 cumulative IPC: 3.579 (Simulation time: 00 hr 01 min 20 sec)
Warmup finished CPU 0 instructions: 25000003 cycles: 6840397 cumulative IPC: 3.655 (Simulation time: 00 hr 01 min 40 sec)
Warmup complete CPU 0 instructions: 25000003 cycles: 6840397 cumulative IPC: 3.655 (Simulation time: 00 hr 01 min 40 sec)
Heartbeat CPU 0 instructions: 30000000 cycles: 58609360 heartbeat IPC: 0.1886 cumulative IPC: 0.09658 (Simulation time: 00 hr 06 min 24 sec)
Heartbeat CPU 0 instructions: 40000003 cycles: 161819249 heartbeat IPC: 0.09689 cumulative IPC: 0.09679 (Simulation time: 00 hr 13 min 05 sec)
Heartbeat CPU 0 instructions: 50000003 cycles: 265903957 heartbeat IPC: 0.09608 cumulative IPC: 0.0965 (Simulation time: 00 hr 17 min 27 sec)
Simulation finished CPU 0 instructions: 25000000 cycles: 259063561 cumulative IPC: 0.0965 (Simulation time: 00 hr 17 min 27 sec)
Simulation complete CPU 0 instructions: 25000000 cycles: 259063561 cumulative IPC: 0.0965 (Simulation time: 00 hr 17 min 27 sec)

ChampSim completed all CPUs

=== Simulation ===
CPU 0 runs ./gap/bc-12.trace.gz
Region of Interest Statistics

CPU 0 cumulative IPC: 0.0965 instructions: 25000000 cycles: 259063561
CPU 0 Branch Prediction Accuracy: 82.52% MPKI: 30.32 Average ROB Occupancy at Mispredict: 27.67
Branch type MPKI
BRANCH_DIRECT_JUMP: 0
BRANCH_INDIRECT: 0
BRANCH_CONDITIONAL: 30.3
BRANCH_DIRECT_CALL: 0
BRANCH_INDIRECT_CALL: 0
BRANCH_RETURN: 0

LLC TOTAL        ACCESS:    4749217 HIT:    2059582 MISS:    2689635
LLC LOAD         ACCESS:    1849991 HIT:     608654 MISS:    1241337
LLC RFO          ACCESS:      11922 HIT:        317 MISS:      11605
LLC PREFETCH     ACCESS:    2041491 HIT:     615376 MISS:    1426115
LLC WRITE        ACCESS:     751023 HIT:     751003 MISS:         20
LLC TRANSLATION  ACCESS:      94790 HIT:      84232 MISS:      10558
LLC PREFETCH REQUESTED:          0 ISSUED:          0 USEFUL:          0 USELESS:          0
LLC AVERAGE MISS LATENCY: 476.8 cycles
cpu0_DTLB TOTAL        ACCESS:    7277154 HIT:    6280666 MISS:     996488
cpu0_DTLB LOAD         ACCESS:    7277154 HIT:    6280666 MISS:     996488
cpu0_DTLB RFO          ACCESS:          0 HIT:          0 MISS:          0
cpu0_DTLB PREFETCH     ACCESS:          0 HIT:          0 MISS:          0
cpu0_DTLB WRITE        ACCESS:          0 HIT:          0 MISS:          0
cpu0_DTLB TRANSLATION  ACCESS:          0 HIT:          0 MISS:          0
cpu0_DTLB PREFETCH REQUESTED:          0 ISSUED:          0 USEFUL:          0 USELESS:          0
cpu0_DTLB AVERAGE MISS LATENCY: 18.17 cycles
cpu0_ITLB TOTAL        ACCESS:          0 HIT:          0 MISS:          0
cpu0_ITLB LOAD         ACCESS:          0 HIT:          0 MISS:          0
cpu0_ITLB RFO          ACCESS:          0 HIT:          0 MISS:          0
cpu0_ITLB PREFETCH     ACCESS:          0 HIT:          0 MISS:          0
cpu0_ITLB WRITE        ACCESS:          0 HIT:          0 MISS:          0
cpu0_ITLB TRANSLATION  ACCESS:          0 HIT:          0 MISS:          0
cpu0_ITLB PREFETCH REQUESTED:          0 ISSUED:          0 USEFUL:          0 USELESS:          0
cpu0_ITLB AVERAGE MISS LATENCY: -nan cycles
cpu0_L1D TOTAL        ACCESS:   15163886 HIT:   10567273 MISS:    4596613
cpu0_L1D LOAD         ACCESS:    6824389 HIT:    4829350 MISS:    1995039
cpu0_L1D RFO          ACCESS:          0 HIT:          0 MISS:          0
cpu0_L1D PREFETCH     ACCESS:    6427701 HIT:    4099403 MISS:    2328298
cpu0_L1D WRITE        ACCESS:    1534469 HIT:    1498690 MISS:      35779
cpu0_L1D TRANSLATION  ACCESS:     377327 HIT:     139830 MISS:     237497
cpu0_L1D PREFETCH REQUESTED:    7462787 ISSUED:    6427693 USEFUL:     162994 USELESS:    1781035
cpu0_L1D AVERAGE MISS LATENCY: 286.8 cycles
cpu0_L1I TOTAL        ACCESS:          0 HIT:          0 MISS:          0
cpu0_L1I LOAD         ACCESS:          0 HIT:          0 MISS:          0
cpu0_L1I RFO          ACCESS:          0 HIT:          0 MISS:          0
cpu0_L1I PREFETCH     ACCESS:          0 HIT:          0 MISS:          0
cpu0_L1I WRITE        ACCESS:          0 HIT:          0 MISS:          0
cpu0_L1I TRANSLATION  ACCESS:          0 HIT:          0 MISS:          0
cpu0_L1I PREFETCH REQUESTED:          0 ISSUED:          0 USEFUL:          0 USELESS:          0
cpu0_L1I AVERAGE MISS LATENCY: -nan cycles
cpu0_L2C TOTAL        ACCESS:    5043420 HIT:    1008589 MISS:    4034831
cpu0_L2C LOAD         ACCESS:    1908336 HIT:      50645 MISS:    1857691
cpu0_L2C RFO          ACCESS:      16848 HIT:       4926 MISS:      11922
cpu0_L2C PREFETCH     ACCESS:    2122895 HIT:      53287 MISS:    2069608
cpu0_L2C WRITE        ACCESS:     758158 HIT:     757338 MISS:        820
cpu0_L2C TRANSLATION  ACCESS:     237183 HIT:     142393 MISS:      94790
cpu0_L2C PREFETCH REQUESTED:     178781 ISSUED:     178781 USEFUL:      22789 USELESS:     115825
cpu0_L2C AVERAGE MISS LATENCY: 336.7 cycles
cpu0_STLB TOTAL        ACCESS:     810128 HIT:     432809 MISS:     377319
cpu0_STLB LOAD         ACCESS:     810128 HIT:     432809 MISS:     377319
cpu0_STLB RFO          ACCESS:          0 HIT:          0 MISS:          0
cpu0_STLB PREFETCH     ACCESS:          0 HIT:          0 MISS:          0
cpu0_STLB WRITE        ACCESS:          0 HIT:          0 MISS:          0
cpu0_STLB TRANSLATION  ACCESS:          0 HIT:          0 MISS:          0
cpu0_STLB PREFETCH REQUESTED:          0 ISSUED:          0 USEFUL:          0 USELESS:          0
cpu0_STLB AVERAGE MISS LATENCY: 32.84 cycles

DRAM Statistics

Channel 0 RQ ROW_BUFFER_HIT:     687870
  ROW_BUFFER_MISS:    1986186
 AVG DBUS CONGESTED CYCLE: 3.906
WQ ROW_BUFFER_HIT: Channel 0 
  ROW_BUFFER_MISS:       8845
  FULL:     663717
