WARNING: physical memory size is smaller than virtual memory size.

*** ChampSim Multicore Out-of-Order Simulator ***
Warmup Instructions: 25000000
Simulation Instructions: 25000000
Number of CPUs: 1
Page size: 4096

Off-chip DRAM Size: 4 GiB Channels: 1 Width: 64-bit Data Race: 800 MT/s
Heartbeat CPU 0 instructions: 10000001 cycles: 3085177 heartbeat IPC: 3.241 cumulative IPC: 3.241 (Simulation time: 00 hr 00 min 41 sec)
Heartbeat CPU 0 instructions: 20000002 cycles: 5588206 heartbeat IPC: 3.995 cumulative IPC: 3.579 (Simulation time: 00 hr 01 min 20 sec)
Warmup finished CPU 0 instructions: 25000000 cycles: 6839711 cumulative IPC: 3.655 (Simulation time: 00 hr 01 min 40 sec)
Warmup complete CPU 0 instructions: 25000000 cycles: 6839711 cumulative IPC: 3.655 (Simulation time: 00 hr 01 min 40 sec)
Heartbeat CPU 0 instructions: 30000002 cycles: 52545882 heartbeat IPC: 0.213 cumulative IPC: 0.1094 (Simulation time: 00 hr 06 min 08 sec)
Heartbeat CPU 0 instructions: 40000001 cycles: 140608511 heartbeat IPC: 0.1136 cumulative IPC: 0.1121 (Simulation time: 00 hr 12 min 47 sec)
Heartbeat CPU 0 instructions: 50000001 cycles: 229421910 heartbeat IPC: 0.1126 cumulative IPC: 0.1123 (Simulation time: 00 hr 17 min 08 sec)
Simulation finished CPU 0 instructions: 25000001 cycles: 222582200 cumulative IPC: 0.1123 (Simulation time: 00 hr 17 min 08 sec)
Simulation complete CPU 0 instructions: 25000001 cycles: 222582200 cumulative IPC: 0.1123 (Simulation time: 00 hr 17 min 08 sec)

ChampSim completed all CPUs

=== Simulation ===
CPU 0 runs ./gap/bc-5.trace.gz
Region of Interest Statistics

CPU 0 cumulative IPC: 0.1123 instructions: 25000001 cycles: 222582200
CPU 0 Branch Prediction Accuracy: 89.9% MPKI: 13.69 Average ROB Occupancy at Mispredict: 70.34
Branch type MPKI
BRANCH_DIRECT_JUMP: 0
BRANCH_INDIRECT: 0
BRANCH_CONDITIONAL: 13.7
BRANCH_DIRECT_CALL: 0
BRANCH_INDIRECT_CALL: 0
BRANCH_RETURN: 0

LLC TOTAL        ACCESS:    4155678 HIT:    1940121 MISS:    2215557
LLC LOAD         ACCESS:    1784956 HIT:     559985 MISS:    1224971
LLC RFO          ACCESS:      10716 HIT:        293 MISS:      10423
LLC PREFETCH     ACCESS:    1314285 HIT:     342219 MISS:     972066
LLC WRITE        ACCESS:     967357 HIT:     967344 MISS:         13
LLC TRANSLATION  ACCESS:      78364 HIT:      70280 MISS:       8084
LLC PREFETCH REQUESTED:          0 ISSUED:          0 USEFUL:          0 USELESS:          0
LLC AVERAGE MISS LATENCY: 887.6 cycles
cpu0_DTLB TOTAL        ACCESS:    7139127 HIT:    6176219 MISS:     962908
cpu0_DTLB LOAD         ACCESS:    7139127 HIT:    6176219 MISS:     962908
cpu0_DTLB RFO          ACCESS:          0 HIT:          0 MISS:          0
cpu0_DTLB PREFETCH     ACCESS:          0 HIT:          0 MISS:          0
cpu0_DTLB WRITE        ACCESS:          0 HIT:          0 MISS:          0
cpu0_DTLB TRANSLATION  ACCESS:          0 HIT:          0 MISS:          0
cpu0_DTLB PREFETCH REQUESTED:          0 ISSUED:          0 USEFUL:          0 USELESS:          0
cpu0_DTLB AVERAGE MISS LATENCY: 20.87 cycles
cpu0_ITLB TOTAL        ACCESS:          0 HIT:          0 MISS:          0
cpu0_ITLB LOAD         ACCESS:          0 HIT:          0 MISS:          0
cpu0_ITLB RFO          ACCESS:          0 HIT:          0 MISS:          0
cpu0_ITLB PREFETCH     ACCESS:          0 HIT:          0 MISS:          0
cpu0_ITLB WRITE        ACCESS:          0 HIT:          0 MISS:          0
cpu0_ITLB TRANSLATION  ACCESS:          0 HIT:          0 MISS:          0
cpu0_ITLB PREFETCH REQUESTED:          0 ISSUED:          0 USEFUL:          0 USELESS:          0
cpu0_ITLB AVERAGE MISS LATENCY: -nan cycles
cpu0_L1D TOTAL        ACCESS:   12429462 HIT:    8464462 MISS:    3965000
cpu0_L1D LOAD         ACCESS:    6300612 HIT:    4355568 MISS:    1945044
cpu0_L1D RFO          ACCESS:          0 HIT:          0 MISS:          0
cpu0_L1D PREFETCH     ACCESS:    3747189 HIT:    1955686 MISS:    1791503
cpu0_L1D WRITE        ACCESS:    2022035 HIT:    1991326 MISS:      30709
cpu0_L1D TRANSLATION  ACCESS:     359626 HIT:     161882 MISS:     197744
cpu0_L1D PREFETCH REQUESTED:   23478973 ISSUED:    3747181 USEFUL:     118080 USELESS:    1027719
cpu0_L1D AVERAGE MISS LATENCY: 473 cycles
cpu0_L1I TOTAL        ACCESS:          0 HIT:          0 MISS:          0
cpu0_L1I LOAD         ACCESS:          0 HIT:          0 MISS:          0
cpu0_L1I RFO          ACCESS:          0 HIT:          0 MISS:          0
cpu0_L1I PREFETCH     ACCESS:          0 HIT:          0 MISS:          0
cpu0_L1I WRITE        ACCESS:          0 HIT:          0 MISS:          0
cpu0_L1I TRANSLATION  ACCESS:          0 HIT:          0 MISS:          0
cpu0_L1I PREFETCH REQUESTED:          0 ISSUED:          0 USEFUL:          0 USELESS:          0
cpu0_L1I AVERAGE MISS LATENCY: -nan cycles
cpu0_L2C TOTAL        ACCESS:    4402013 HIT:    1150041 MISS:    3251972
cpu0_L2C LOAD         ACCESS:    1828870 HIT:      30324 MISS:    1798546
cpu0_L2C RFO          ACCESS:      14104 HIT:       3388 MISS:      10716
cpu0_L2C PREFETCH     ACCESS:    1385826 HIT:      22087 MISS:    1363739
cpu0_L2C WRITE        ACCESS:     976421 HIT:     975814 MISS:        607
cpu0_L2C TRANSLATION  ACCESS:     196792 HIT:     118428 MISS:      78364
cpu0_L2C PREFETCH REQUESTED:     239923 ISSUED:     239923 USEFUL:      26007 USELESS:     105845
cpu0_L2C AVERAGE MISS LATENCY: 605 cycles
cpu0_STLB TOTAL        ACCESS:     584763 HIT:     225131 MISS:     359632
cpu0_STLB LOAD         ACCESS:     584763 HIT:     225131 MISS:     359632
cpu0_STLB RFO          ACCESS:          0 HIT:          0 MISS:          0
cpu0_STLB PREFETCH     ACCESS:          0 HIT:          0 MISS:          0
cpu0_STLB WRITE        ACCESS:          0 HIT:          0 MISS:          0
cpu0_STLB TRANSLATION  ACCESS:          0 HIT:          0 MISS:          0
cpu0_STLB PREFETCH REQUESTED:          0 ISSUED:          0 USEFUL:          0 USELESS:          0
cpu0_STLB AVERAGE MISS LATENCY: 51.88 cycles

DRAM Statistics

Channel 0 RQ ROW_BUFFER_HIT:     590436
  ROW_BUFFER_MISS:    1597173
 AVG DBUS CONGESTED CYCLE: 3.919
WQ ROW_BUFFER_HIT: Channel 0 
  ROW_BUFFER_MISS:      13862
  FULL:     750870
