WARNING: physical memory size is smaller than virtual memory size.

*** ChampSim Multicore Out-of-Order Simulator ***
Warmup Instructions: 25000000
Simulation Instructions: 25000000
Number of CPUs: 1
Page size: 4096

Off-chip DRAM Size: 4 GiB Channels: 1 Width: 64-bit Data Race: 800 MT/s
Heartbeat CPU 0 instructions: 10000002 cycles: 2500151 heartbeat IPC: 4 cumulative IPC: 4 (Simulation time: 00 hr 00 min 31 sec)
Heartbeat CPU 0 instructions: 20000000 cycles: 5014156 heartbeat IPC: 3.978 cumulative IPC: 3.989 (Simulation time: 00 hr 01 min 07 sec)
Warmup finished CPU 0 instructions: 25000000 cycles: 6264157 cumulative IPC: 3.991 (Simulation time: 00 hr 01 min 25 sec)
Warmup complete CPU 0 instructions: 25000000 cycles: 6264157 cumulative IPC: 3.991 (Simulation time: 00 hr 01 min 25 sec)
Heartbeat CPU 0 instructions: 30000000 cycles: 19051737 heartbeat IPC: 0.7124 cumulative IPC: 0.391 (Simulation time: 00 hr 02 min 40 sec)
Heartbeat CPU 0 instructions: 40000002 cycles: 44571475 heartbeat IPC: 0.3919 cumulative IPC: 0.3916 (Simulation time: 00 hr 05 min 17 sec)
Heartbeat CPU 0 instructions: 50000000 cycles: 77444342 heartbeat IPC: 0.3042 cumulative IPC: 0.3512 (Simulation time: 00 hr 08 min 22 sec)
Simulation finished CPU 0 instructions: 25000000 cycles: 71180186 cumulative IPC: 0.3512 (Simulation time: 00 hr 08 min 22 sec)
Simulation complete CPU 0 instructions: 25000000 cycles: 71180186 cumulative IPC: 0.3512 (Simulation time: 00 hr 08 min 22 sec)

ChampSim completed all CPUs

=== Simulation ===
CPU 0 runs ./gap/bfs-3.trace.gz
Region of Interest Statistics

CPU 0 cumulative IPC: 0.3512 instructions: 25000000 cycles: 71180186
CPU 0 Branch Prediction Accuracy: 77.24% MPKI: 44.91 Average ROB Occupancy at Mispredict: 6.035
Branch type MPKI
BRANCH_DIRECT_JUMP: 4e-05
BRANCH_INDIRECT: 0
BRANCH_CONDITIONAL: 44.9
BRANCH_DIRECT_CALL: 4e-05
BRANCH_INDIRECT_CALL: 0
BRANCH_RETURN: 8e-05

LLC TOTAL        ACCESS:     725515 HIT:     154233 MISS:     571282
LLC LOAD         ACCESS:     167570 HIT:      44112 MISS:     123458
LLC RFO          ACCESS:        139 HIT:        130 MISS:          9
LLC PREFETCH     ACCESS:     487217 HIT:      43510 MISS:     443707
LLC WRITE        ACCESS:      64819 HIT:      64157 MISS:        662
LLC TRANSLATION  ACCESS:       5770 HIT:       2324 MISS:       3446
LLC PREFETCH REQUESTED:          0 ISSUED:          0 USEFUL:          0 USELESS:          0
LLC AVERAGE MISS LATENCY: 251 cycles
cpu0_DTLB TOTAL        ACCESS:    6481092 HIT:    6434146 MISS:      46946
cpu0_DTLB LOAD         ACCESS:    6481092 HIT:    6434146 MISS:      46946
cpu0_DTLB RFO          ACCESS:          0 HIT:          0 MISS:          0
cpu0_DTLB PREFETCH     ACCESS:          0 HIT:          0 MISS:          0
cpu0_DTLB WRITE        ACCESS:          0 HIT:          0 MISS:          0
cpu0_DTLB TRANSLATION  ACCESS:          0 HIT:          0 MISS:          0
cpu0_DTLB PREFETCH REQUESTED:          0 ISSUED:          0 USEFUL:          0 USELESS:          0
cpu0_DTLB AVERAGE MISS LATENCY: 93.5 cycles
cpu0_ITLB TOTAL        ACCESS:          3 HIT:          3 MISS:          0
cpu0_ITLB LOAD         ACCESS:          3 HIT:          3 MISS:          0
cpu0_ITLB RFO          ACCESS:          0 HIT:          0 MISS:          0
cpu0_ITLB PREFETCH     ACCESS:          0 HIT:          0 MISS:          0
cpu0_ITLB WRITE        ACCESS:          0 HIT:          0 MISS:          0
cpu0_ITLB TRANSLATION  ACCESS:          0 HIT:          0 MISS:          0
cpu0_ITLB PREFETCH REQUESTED:          0 ISSUED:          0 USEFUL:          0 USELESS:          0
cpu0_ITLB AVERAGE MISS LATENCY: -nan cycles
cpu0_L1D TOTAL        ACCESS:   13738351 HIT:    9790592 MISS:    3947759
cpu0_L1D LOAD         ACCESS:    6593905 HIT:    5405873 MISS:    1188032
cpu0_L1D RFO          ACCESS:          0 HIT:          0 MISS:          0
cpu0_L1D PREFETCH     ACCESS:    6460738 HIT:    3728743 MISS:    2731995
cpu0_L1D WRITE        ACCESS:     658579 HIT:     651137 MISS:       7442
cpu0_L1D TRANSLATION  ACCESS:      25129 HIT:       4839 MISS:      20290
cpu0_L1D PREFETCH REQUESTED:    6593908 ISSUED:    6460733 USEFUL:     427353 USELESS:     735474
cpu0_L1D AVERAGE MISS LATENCY: 39.51 cycles
cpu0_L1I TOTAL        ACCESS:          3 HIT:          2 MISS:          1
cpu0_L1I LOAD         ACCESS:          3 HIT:          2 MISS:          1
cpu0_L1I RFO          ACCESS:          0 HIT:          0 MISS:          0
cpu0_L1I PREFETCH     ACCESS:          0 HIT:          0 MISS:          0
cpu0_L1I WRITE        ACCESS:          0 HIT:          0 MISS:          0
cpu0_L1I TRANSLATION  ACCESS:          0 HIT:          0 MISS:          0
cpu0_L1I PREFETCH REQUESTED:          0 ISSUED:          0 USEFUL:          0 USELESS:          0
cpu0_L1I AVERAGE MISS LATENCY: 598 cycles
cpu0_L2C TOTAL        ACCESS:    2157559 HIT:    1494890 MISS:     662669
cpu0_L2C LOAD         ACCESS:     881653 HIT:     713567 MISS:     168086
cpu0_L2C RFO          ACCESS:       1859 HIT:       1720 MISS:        139
cpu0_L2C PREFETCH     ACCESS:    1188804 HIT:     700142 MISS:     488662
cpu0_L2C WRITE        ACCESS:      64953 HIT:      64941 MISS:         12
cpu0_L2C TRANSLATION  ACCESS:      20290 HIT:      14520 MISS:       5770
cpu0_L2C PREFETCH REQUESTED:      26000 ISSUED:      26000 USEFUL:       8524 USELESS:      13219
cpu0_L2C AVERAGE MISS LATENCY: 237 cycles
cpu0_STLB TOTAL        ACCESS:      27618 HIT:       2554 MISS:      25064
cpu0_STLB LOAD         ACCESS:      27618 HIT:       2554 MISS:      25064
cpu0_STLB RFO          ACCESS:          0 HIT:          0 MISS:          0
cpu0_STLB PREFETCH     ACCESS:          0 HIT:          0 MISS:          0
cpu0_STLB WRITE        ACCESS:          0 HIT:          0 MISS:          0
cpu0_STLB TRANSLATION  ACCESS:          0 HIT:          0 MISS:          0
cpu0_STLB PREFETCH REQUESTED:          0 ISSUED:          0 USEFUL:          0 USELESS:          0
cpu0_STLB AVERAGE MISS LATENCY: 167.1 cycles

DRAM Statistics

Channel 0 RQ ROW_BUFFER_HIT:      95703
  ROW_BUFFER_MISS:     474895
 AVG DBUS CONGESTED CYCLE: 3.813
WQ ROW_BUFFER_HIT: Channel 0 
  ROW_BUFFER_MISS:       9373
  FULL:      54124
