WARNING: physical memory size is smaller than virtual memory size.

*** ChampSim Multicore Out-of-Order Simulator ***
Warmup Instructions: 25000000
Simulation Instructions: 25000000
Number of CPUs: 1
Page size: 4096

Off-chip DRAM Size: 4 GiB Channels: 1 Width: 64-bit Data Race: 800 MT/s
Heartbeat CPU 0 instructions: 10000002 cycles: 2500136 heartbeat IPC: 4 cumulative IPC: 4 (Simulation time: 00 hr 00 min 31 sec)
Heartbeat CPU 0 instructions: 20000001 cycles: 5014039 heartbeat IPC: 3.978 cumulative IPC: 3.989 (Simulation time: 00 hr 01 min 07 sec)
Warmup finished CPU 0 instructions: 25000001 cycles: 6264040 cumulative IPC: 3.991 (Simulation time: 00 hr 01 min 25 sec)
Warmup complete CPU 0 instructions: 25000001 cycles: 6264040 cumulative IPC: 3.991 (Simulation time: 00 hr 01 min 25 sec)
Heartbeat CPU 0 instructions: 30000001 cycles: 16590944 heartbeat IPC: 0.8638 cumulative IPC: 0.4842 (Simulation time: 00 hr 02 min 28 sec)
Heartbeat CPU 0 instructions: 40000003 cycles: 37315713 heartbeat IPC: 0.4825 cumulative IPC: 0.4831 (Simulation time: 00 hr 04 min 39 sec)
Heartbeat CPU 0 instructions: 50000001 cycles: 58035696 heartbeat IPC: 0.4826 cumulative IPC: 0.4829 (Simulation time: 00 hr 06 min 51 sec)
Simulation finished CPU 0 instructions: 25000000 cycles: 51771657 cumulative IPC: 0.4829 (Simulation time: 00 hr 06 min 51 sec)
Simulation complete CPU 0 instructions: 25000000 cycles: 51771657 cumulative IPC: 0.4829 (Simulation time: 00 hr 06 min 51 sec)

ChampSim completed all CPUs

=== Simulation ===
CPU 0 runs ./gap/bfs-10.trace.gz
Region of Interest Statistics

CPU 0 cumulative IPC: 0.4829 instructions: 25000000 cycles: 51771657
CPU 0 Branch Prediction Accuracy: 83.9% MPKI: 33.23 Average ROB Occupancy at Mispredict: 10.97
Branch type MPKI
BRANCH_DIRECT_JUMP: 0
BRANCH_INDIRECT: 0
BRANCH_CONDITIONAL: 33.2
BRANCH_DIRECT_CALL: 0
BRANCH_INDIRECT_CALL: 0
BRANCH_RETURN: 0

LLC TOTAL        ACCESS:     472287 HIT:      59372 MISS:     412915
LLC LOAD         ACCESS:      93833 HIT:      10069 MISS:      83764
LLC RFO          ACCESS:          0 HIT:          0 MISS:          0
LLC PREFETCH     ACCESS:     336651 HIT:       9472 MISS:     327179
LLC WRITE        ACCESS:      37955 HIT:      37902 MISS:         53
LLC TRANSLATION  ACCESS:       3848 HIT:       1929 MISS:       1919
LLC PREFETCH REQUESTED:          0 ISSUED:          0 USEFUL:          0 USELESS:          0
LLC AVERAGE MISS LATENCY: 233.8 cycles
cpu0_DTLB TOTAL        ACCESS:    5965984 HIT:    5907553 MISS:      58431
cpu0_DTLB LOAD         ACCESS:    5965984 HIT:    5907553 MISS:      58431
cpu0_DTLB RFO          ACCESS:          0 HIT:          0 MISS:          0
cpu0_DTLB PREFETCH     ACCESS:          0 HIT:          0 MISS:          0
cpu0_DTLB WRITE        ACCESS:          0 HIT:          0 MISS:          0
cpu0_DTLB TRANSLATION  ACCESS:          0 HIT:          0 MISS:          0
cpu0_DTLB PREFETCH REQUESTED:          0 ISSUED:          0 USEFUL:          0 USELESS:          0
cpu0_DTLB AVERAGE MISS LATENCY: 60.72 cycles
cpu0_ITLB TOTAL        ACCESS:          0 HIT:          0 MISS:          0
cpu0_ITLB LOAD         ACCESS:          0 HIT:          0 MISS:          0
cpu0_ITLB RFO          ACCESS:          0 HIT:          0 MISS:          0
cpu0_ITLB PREFETCH     ACCESS:          0 HIT:          0 MISS:          0
cpu0_ITLB WRITE        ACCESS:          0 HIT:          0 MISS:          0
cpu0_ITLB TRANSLATION  ACCESS:          0 HIT:          0 MISS:          0
cpu0_ITLB PREFETCH REQUESTED:          0 ISSUED:          0 USEFUL:          0 USELESS:          0
cpu0_ITLB AVERAGE MISS LATENCY: -nan cycles
cpu0_L1D TOTAL        ACCESS:   12641654 HIT:    7881219 MISS:    4760435
cpu0_L1D LOAD         ACCESS:    6275313 HIT:    4496066 MISS:    1779247
cpu0_L1D RFO          ACCESS:          0 HIT:          0 MISS:          0
cpu0_L1D PREFETCH     ACCESS:    5978091 HIT:    3011007 MISS:    2967084
cpu0_L1D WRITE        ACCESS:     373079 HIT:     373079 MISS:          0
cpu0_L1D TRANSLATION  ACCESS:      15171 HIT:       1067 MISS:      14104
cpu0_L1D PREFETCH REQUESTED:    6275452 ISSUED:    5978089 USEFUL:     417546 USELESS:     932560
cpu0_L1D AVERAGE MISS LATENCY: 24.25 cycles
cpu0_L1I TOTAL        ACCESS:          0 HIT:          0 MISS:          0
cpu0_L1I LOAD         ACCESS:          0 HIT:          0 MISS:          0
cpu0_L1I RFO          ACCESS:          0 HIT:          0 MISS:          0
cpu0_L1I PREFETCH     ACCESS:          0 HIT:          0 MISS:          0
cpu0_L1I WRITE        ACCESS:          0 HIT:          0 MISS:          0
cpu0_L1I TRANSLATION  ACCESS:          0 HIT:          0 MISS:          0
cpu0_L1I PREFETCH REQUESTED:          0 ISSUED:          0 USEFUL:          0 USELESS:          0
cpu0_L1I AVERAGE MISS LATENCY: -nan cycles
cpu0_L2C TOTAL        ACCESS:    2635491 HIT:    2200216 MISS:     435275
cpu0_L2C LOAD         ACCESS:    1209764 HIT:    1115707 MISS:      94057
cpu0_L2C RFO          ACCESS:          0 HIT:          0 MISS:          0
cpu0_L2C PREFETCH     ACCESS:    1373707 HIT:    1036348 MISS:     337359
cpu0_L2C WRITE        ACCESS:      37916 HIT:      37905 MISS:         11
cpu0_L2C TRANSLATION  ACCESS:      14104 HIT:      10256 MISS:       3848
cpu0_L2C PREFETCH REQUESTED:      23613 ISSUED:      23613 USEFUL:       6011 USELESS:       6817
cpu0_L2C AVERAGE MISS LATENCY: 242.6 cycles
cpu0_STLB TOTAL        ACCESS:      17294 HIT:       2158 MISS:      15136
cpu0_STLB LOAD         ACCESS:      17294 HIT:       2158 MISS:      15136
cpu0_STLB RFO          ACCESS:          0 HIT:          0 MISS:          0
cpu0_STLB PREFETCH     ACCESS:          0 HIT:          0 MISS:          0
cpu0_STLB WRITE        ACCESS:          0 HIT:          0 MISS:          0
cpu0_STLB TRANSLATION  ACCESS:          0 HIT:          0 MISS:          0
cpu0_STLB PREFETCH REQUESTED:          0 ISSUED:          0 USEFUL:          0 USELESS:          0
cpu0_STLB AVERAGE MISS LATENCY: 229.9 cycles

DRAM Statistics

Channel 0 RQ ROW_BUFFER_HIT:      72194
  ROW_BUFFER_MISS:     340664
 AVG DBUS CONGESTED CYCLE: 3.765
WQ ROW_BUFFER_HIT: Channel 0 
  ROW_BUFFER_MISS:       7552
  FULL:      30499
