WARNING: physical memory size is smaller than virtual memory size.

*** ChampSim Multicore Out-of-Order Simulator ***
Warmup Instructions: 25000000
Simulation Instructions: 25000000
Number of CPUs: 1
Page size: 4096

Off-chip DRAM Size: 4 GiB Channels: 1 Width: 64-bit Data Race: 800 MT/s
Heartbeat CPU 0 instructions: 10000002 cycles: 2500131 heartbeat IPC: 4 cumulative IPC: 4 (Simulation time: 00 hr 00 min 32 sec)
Heartbeat CPU 0 instructions: 20000003 cycles: 5014706 heartbeat IPC: 3.977 cumulative IPC: 3.988 (Simulation time: 00 hr 01 min 09 sec)
Warmup finished CPU 0 instructions: 25000003 cycles: 6264707 cumulative IPC: 3.991 (Simulation time: 00 hr 01 min 27 sec)
Warmup complete CPU 0 instructions: 25000003 cycles: 6264707 cumulative IPC: 3.991 (Simulation time: 00 hr 01 min 27 sec)
Heartbeat CPU 0 instructions: 30000000 cycles: 21350152 heartbeat IPC: 0.6122 cumulative IPC: 0.3314 (Simulation time: 00 hr 02 min 53 sec)
Heartbeat CPU 0 instructions: 40000000 cycles: 53489835 heartbeat IPC: 0.3111 cumulative IPC: 0.3176 (Simulation time: 00 hr 05 min 59 sec)
Heartbeat CPU 0 instructions: 50000001 cycles: 92791232 heartbeat IPC: 0.2544 cumulative IPC: 0.2889 (Simulation time: 00 hr 09 min 28 sec)
Simulation finished CPU 0 instructions: 25000001 cycles: 86526527 cumulative IPC: 0.2889 (Simulation time: 00 hr 09 min 28 sec)
Simulation complete CPU 0 instructions: 25000001 cycles: 86526527 cumulative IPC: 0.2889 (Simulation time: 00 hr 09 min 28 sec)

ChampSim completed all CPUs

=== Simulation ===
CPU 0 runs ./gap/bfs-14.trace.gz
Region of Interest Statistics

CPU 0 cumulative IPC: 0.2889 instructions: 25000001 cycles: 86526527
CPU 0 Branch Prediction Accuracy: 75.19% MPKI: 50.74 Average ROB Occupancy at Mispredict: 5.17
Branch type MPKI
BRANCH_DIRECT_JUMP: 4e-05
BRANCH_INDIRECT: 0
BRANCH_CONDITIONAL: 50.7
BRANCH_DIRECT_CALL: 4e-05
BRANCH_INDIRECT_CALL: 0
BRANCH_RETURN: 0.00012

LLC TOTAL        ACCESS:     932832 HIT:     243553 MISS:     689279
LLC LOAD         ACCESS:     217177 HIT:      74045 MISS:     143132
LLC RFO          ACCESS:       1388 HIT:       1381 MISS:          7
LLC PREFETCH     ACCESS:     613980 HIT:      73703 MISS:     540277
LLC WRITE        ACCESS:      92742 HIT:      92333 MISS:        409
LLC TRANSLATION  ACCESS:       7545 HIT:       2091 MISS:       5454
LLC PREFETCH REQUESTED:          0 ISSUED:          0 USEFUL:          0 USELESS:          0
LLC AVERAGE MISS LATENCY: 265.2 cycles
cpu0_DTLB TOTAL        ACCESS:    6785638 HIT:    6736877 MISS:      48761
cpu0_DTLB LOAD         ACCESS:    6785638 HIT:    6736877 MISS:      48761
cpu0_DTLB RFO          ACCESS:          0 HIT:          0 MISS:          0
cpu0_DTLB PREFETCH     ACCESS:          0 HIT:          0 MISS:          0
cpu0_DTLB WRITE        ACCESS:          0 HIT:          0 MISS:          0
cpu0_DTLB TRANSLATION  ACCESS:          0 HIT:          0 MISS:          0
cpu0_DTLB PREFETCH REQUESTED:          0 ISSUED:          0 USEFUL:          0 USELESS:          0
cpu0_DTLB AVERAGE MISS LATENCY: 98.24 cycles
cpu0_ITLB TOTAL        ACCESS:          3 HIT:          3 MISS:          0
cpu0_ITLB LOAD         ACCESS:          3 HIT:          3 MISS:          0
cpu0_ITLB RFO          ACCESS:          0 HIT:          0 MISS:          0
cpu0_ITLB PREFETCH     ACCESS:          0 HIT:          0 MISS:          0
cpu0_ITLB WRITE        ACCESS:          0 HIT:          0 MISS:          0
cpu0_ITLB TRANSLATION  ACCESS:          0 HIT:          0 MISS:          0
cpu0_ITLB PREFETCH REQUESTED:          0 ISSUED:          0 USEFUL:          0 USELESS:          0
cpu0_ITLB AVERAGE MISS LATENCY: -nan cycles
cpu0_L1D TOTAL        ACCESS:   13989090 HIT:   10467105 MISS:    3521985
cpu0_L1D LOAD         ACCESS:    6688844 HIT:    5917709 MISS:     771135
cpu0_L1D RFO          ACCESS:          0 HIT:          0 MISS:          0
cpu0_L1D PREFETCH     ACCESS:    6531108 HIT:    3823017 MISS:    2708091
cpu0_L1D WRITE        ACCESS:     731633 HIT:     716020 MISS:      15613
cpu0_L1D TRANSLATION  ACCESS:      37505 HIT:      10359 MISS:      27146
cpu0_L1D PREFETCH REQUESTED:    6688844 ISSUED:    6531101 USEFUL:     442875 USELESS:     495321
cpu0_L1D AVERAGE MISS LATENCY: 53.91 cycles
cpu0_L1I TOTAL        ACCESS:          3 HIT:          2 MISS:          1
cpu0_L1I LOAD         ACCESS:          3 HIT:          2 MISS:          1
cpu0_L1I RFO          ACCESS:          0 HIT:          0 MISS:          0
cpu0_L1I PREFETCH     ACCESS:          0 HIT:          0 MISS:          0
cpu0_L1I WRITE        ACCESS:          0 HIT:          0 MISS:          0
cpu0_L1I TRANSLATION  ACCESS:          0 HIT:          0 MISS:          0
cpu0_L1I PREFETCH REQUESTED:          0 ISSUED:          0 USEFUL:          0 USELESS:          0
cpu0_L1I AVERAGE MISS LATENCY: 677 cycles
cpu0_L2C TOTAL        ACCESS:    1655044 HIT:     812122 MISS:     842922
cpu0_L2C LOAD         ACCESS:     567432 HIT:     349659 MISS:     217773
cpu0_L2C RFO          ACCESS:       3900 HIT:       2512 MISS:       1388
cpu0_L2C PREFETCH     ACCESS:     964037 HIT:     347827 MISS:     616210
cpu0_L2C WRITE        ACCESS:      92529 HIT:      92523 MISS:          6
cpu0_L2C TRANSLATION  ACCESS:      27146 HIT:      19601 MISS:       7545
cpu0_L2C PREFETCH REQUESTED:      25992 ISSUED:      25992 USEFUL:       8471 USELESS:      14709
cpu0_L2C AVERAGE MISS LATENCY: 237.4 cycles
cpu0_STLB TOTAL        ACCESS:      42057 HIT:       4662 MISS:      37395
cpu0_STLB LOAD         ACCESS:      42057 HIT:       4662 MISS:      37395
cpu0_STLB RFO          ACCESS:          0 HIT:          0 MISS:          0
cpu0_STLB PREFETCH     ACCESS:          0 HIT:          0 MISS:          0
cpu0_STLB WRITE        ACCESS:          0 HIT:          0 MISS:          0
cpu0_STLB TRANSLATION  ACCESS:          0 HIT:          0 MISS:          0
cpu0_STLB PREFETCH REQUESTED:          0 ISSUED:          0 USEFUL:          0 USELESS:          0
cpu0_STLB AVERAGE MISS LATENCY: 118.8 cycles

DRAM Statistics

Channel 0 RQ ROW_BUFFER_HIT:     110330
  ROW_BUFFER_MISS:     578523
 AVG DBUS CONGESTED CYCLE: 3.834
WQ ROW_BUFFER_HIT: Channel 0 
  ROW_BUFFER_MISS:      10216
  FULL:      79306
