WARNING: physical memory size is smaller than virtual memory size.

*** ChampSim Multicore Out-of-Order Simulator ***
Warmup Instructions: 25000000
Simulation Instructions: 25000000
Number of CPUs: 1
Page size: 4096

Off-chip DRAM Size: 4 GiB Channels: 1 Width: 64-bit Data Race: 800 MT/s
Heartbeat CPU 0 instructions: 10000002 cycles: 2500132 heartbeat IPC: 4 cumulative IPC: 4 (Simulation time: 00 hr 00 min 32 sec)
Heartbeat CPU 0 instructions: 20000001 cycles: 5016912 heartbeat IPC: 3.973 cumulative IPC: 3.987 (Simulation time: 00 hr 01 min 09 sec)
Warmup finished CPU 0 instructions: 25000001 cycles: 6266913 cumulative IPC: 3.989 (Simulation time: 00 hr 01 min 28 sec)
Warmup complete CPU 0 instructions: 25000001 cycles: 6266913 cumulative IPC: 3.989 (Simulation time: 00 hr 01 min 28 sec)
Heartbeat CPU 0 instructions: 30000002 cycles: 22080735 heartbeat IPC: 0.586 cumulative IPC: 0.3162 (Simulation time: 00 hr 02 min 59 sec)
Heartbeat CPU 0 instructions: 40000001 cycles: 54496725 heartbeat IPC: 0.3085 cumulative IPC: 0.311 (Simulation time: 00 hr 06 min 07 sec)
Heartbeat CPU 0 instructions: 50000002 cycles: 77328001 heartbeat IPC: 0.438 cumulative IPC: 0.3518 (Simulation time: 00 hr 08 min 18 sec)
Simulation finished CPU 0 instructions: 25000001 cycles: 71061089 cumulative IPC: 0.3518 (Simulation time: 00 hr 08 min 18 sec)
Simulation complete CPU 0 instructions: 25000001 cycles: 71061089 cumulative IPC: 0.3518 (Simulation time: 00 hr 08 min 18 sec)

ChampSim completed all CPUs

=== Simulation ===
CPU 0 runs ./gap/bfs-8.trace.gz
Region of Interest Statistics

CPU 0 cumulative IPC: 0.3518 instructions: 25000001 cycles: 71061089
CPU 0 Branch Prediction Accuracy: 81.33% MPKI: 38.48 Average ROB Occupancy at Mispredict: 8.873
Branch type MPKI
BRANCH_DIRECT_JUMP: 8e-05
BRANCH_INDIRECT: 0
BRANCH_CONDITIONAL: 38.5
BRANCH_DIRECT_CALL: 0.00016
BRANCH_INDIRECT_CALL: 0
BRANCH_RETURN: 0.00016

LLC TOTAL        ACCESS:     760148 HIT:     177334 MISS:     582814
LLC LOAD         ACCESS:     165075 HIT:      55692 MISS:     109383
LLC RFO          ACCESS:       1265 HIT:        543 MISS:        722
LLC PREFETCH     ACCESS:     520534 HIT:      53622 MISS:     466912
LLC WRITE        ACCESS:      66305 HIT:      66030 MISS:        275
LLC TRANSLATION  ACCESS:       6969 HIT:       1447 MISS:       5522
LLC PREFETCH REQUESTED:          0 ISSUED:          0 USEFUL:          0 USELESS:          0
LLC AVERAGE MISS LATENCY: 260.7 cycles
cpu0_DTLB TOTAL        ACCESS:    6437322 HIT:    6389141 MISS:      48181
cpu0_DTLB LOAD         ACCESS:    6437322 HIT:    6389141 MISS:      48181
cpu0_DTLB RFO          ACCESS:          0 HIT:          0 MISS:          0
cpu0_DTLB PREFETCH     ACCESS:          0 HIT:          0 MISS:          0
cpu0_DTLB WRITE        ACCESS:          0 HIT:          0 MISS:          0
cpu0_DTLB TRANSLATION  ACCESS:          0 HIT:          0 MISS:          0
cpu0_DTLB PREFETCH REQUESTED:          0 ISSUED:          0 USEFUL:          0 USELESS:          0
cpu0_DTLB AVERAGE MISS LATENCY: 97.58 cycles
cpu0_ITLB TOTAL        ACCESS:         34 HIT:         34 MISS:          0
cpu0_ITLB LOAD         ACCESS:         34 HIT:         34 MISS:          0
cpu0_ITLB RFO          ACCESS:          0 HIT:          0 MISS:          0
cpu0_ITLB PREFETCH     ACCESS:          0 HIT:          0 MISS:          0
cpu0_ITLB WRITE        ACCESS:          0 HIT:          0 MISS:          0
cpu0_ITLB TRANSLATION  ACCESS:          0 HIT:          0 MISS:          0
cpu0_ITLB PREFETCH REQUESTED:          0 ISSUED:          0 USEFUL:          0 USELESS:          0
cpu0_ITLB AVERAGE MISS LATENCY: -nan cycles
cpu0_L1D TOTAL        ACCESS:   12897390 HIT:    9840356 MISS:    3057034
cpu0_L1D LOAD         ACCESS:    6341650 HIT:    5742730 MISS:     598920
cpu0_L1D RFO          ACCESS:          0 HIT:          0 MISS:          0
cpu0_L1D PREFETCH     ACCESS:    5900313 HIT:    3474757 MISS:    2425556
cpu0_L1D WRITE        ACCESS:     622501 HIT:     612477 MISS:      10024
cpu0_L1D TRANSLATION  ACCESS:      32926 HIT:      10392 MISS:      22534
cpu0_L1D PREFETCH REQUESTED:    6341974 ISSUED:    5900313 USEFUL:     390298 USELESS:     302530
cpu0_L1D AVERAGE MISS LATENCY: 49.24 cycles
cpu0_L1I TOTAL        ACCESS:         36 HIT:         32 MISS:          4
cpu0_L1I LOAD         ACCESS:         36 HIT:         32 MISS:          4
cpu0_L1I RFO          ACCESS:          0 HIT:          0 MISS:          0
cpu0_L1I PREFETCH     ACCESS:          0 HIT:          0 MISS:          0
cpu0_L1I WRITE        ACCESS:          0 HIT:          0 MISS:          0
cpu0_L1I TRANSLATION  ACCESS:          0 HIT:          0 MISS:          0
cpu0_L1I PREFETCH REQUESTED:          0 ISSUED:          0 USEFUL:          0 USELESS:          0
cpu0_L1I AVERAGE MISS LATENCY: 341.5 cycles
cpu0_L2C TOTAL        ACCESS:    1179377 HIT:     480742 MISS:     698635
cpu0_L2C LOAD         ACCESS:     368381 HIT:     202570 MISS:     165811
cpu0_L2C RFO          ACCESS:       2622 HIT:       1357 MISS:       1265
cpu0_L2C PREFETCH     ACCESS:     719093 HIT:     194507 MISS:     524586
cpu0_L2C WRITE        ACCESS:      66749 HIT:      66745 MISS:          4
cpu0_L2C TRANSLATION  ACCESS:      22532 HIT:      15563 MISS:       6969
cpu0_L2C PREFETCH REQUESTED:      26420 ISSUED:      26420 USEFUL:       9992 USELESS:      12139
cpu0_L2C AVERAGE MISS LATENCY: 237.9 cycles
cpu0_STLB TOTAL        ACCESS:      40039 HIT:       7224 MISS:      32815
cpu0_STLB LOAD         ACCESS:      40039 HIT:       7224 MISS:      32815
cpu0_STLB RFO          ACCESS:          0 HIT:          0 MISS:          0
cpu0_STLB PREFETCH     ACCESS:          0 HIT:          0 MISS:          0
cpu0_STLB WRITE        ACCESS:          0 HIT:          0 MISS:          0
cpu0_STLB TRANSLATION  ACCESS:          0 HIT:          0 MISS:          0
cpu0_STLB PREFETCH REQUESTED:          0 ISSUED:          0 USEFUL:          0 USELESS:          0
cpu0_STLB AVERAGE MISS LATENCY: 133.7 cycles

DRAM Statistics

Channel 0 RQ ROW_BUFFER_HIT:     110397
  ROW_BUFFER_MISS:     472124
 AVG DBUS CONGESTED CYCLE: 3.814
WQ ROW_BUFFER_HIT: Channel 0 
  ROW_BUFFER_MISS:       7246
  FULL:      59063
