WARNING: physical memory size is smaller than virtual memory size.

*** ChampSim Multicore Out-of-Order Simulator ***
Warmup Instructions: 25000000
Simulation Instructions: 25000000
Number of CPUs: 1
Page size: 4096

Off-chip DRAM Size: 4 GiB Channels: 1 Width: 64-bit Data Race: 800 MT/s
Heartbeat CPU 0 instructions: 10000001 cycles: 2500135 heartbeat IPC: 4 cumulative IPC: 4 (Simulation time: 00 hr 00 min 33 sec)
Heartbeat CPU 0 instructions: 20000001 cycles: 5000135 heartbeat IPC: 4 cumulative IPC: 4 (Simulation time: 00 hr 01 min 08 sec)
Warmup finished CPU 0 instructions: 25000001 cycles: 6250136 cumulative IPC: 4 (Simulation time: 00 hr 01 min 26 sec)
Warmup complete CPU 0 instructions: 25000001 cycles: 6250136 cumulative IPC: 4 (Simulation time: 00 hr 01 min 26 sec)
Heartbeat CPU 0 instructions: 30000000 cycles: 29274288 heartbeat IPC: 0.412 cumulative IPC: 0.2172 (Simulation time: 00 hr 03 min 26 sec)
Heartbeat CPU 0 instructions: 40000002 cycles: 74443747 heartbeat IPC: 0.2214 cumulative IPC: 0.22 (Simulation time: 00 hr 07 min 28 sec)
Heartbeat CPU 0 instructions: 50000000 cycles: 118923973 heartbeat IPC: 0.2248 cumulative IPC: 0.2219 (Simulation time: 00 hr 11 min 02 sec)
Simulation finished CPU 0 instructions: 25000003 cycles: 112673839 cumulative IPC: 0.2219 (Simulation time: 00 hr 11 min 02 sec)
Simulation complete CPU 0 instructions: 25000003 cycles: 112673839 cumulative IPC: 0.2219 (Simulation time: 00 hr 11 min 02 sec)

ChampSim completed all CPUs

=== Simulation ===
CPU 0 runs ./gap/cc-14.trace.gz
Region of Interest Statistics

CPU 0 cumulative IPC: 0.2219 instructions: 25000003 cycles: 112673839
CPU 0 Branch Prediction Accuracy: 88.25% MPKI: 23.47 Average ROB Occupancy at Mispredict: 21.87
Branch type MPKI
BRANCH_DIRECT_JUMP: 0
BRANCH_INDIRECT: 0
BRANCH_CONDITIONAL: 23.5
BRANCH_DIRECT_CALL: 0
BRANCH_INDIRECT_CALL: 0
BRANCH_RETURN: 0

LLC TOTAL        ACCESS:    2796048 HIT:    1755718 MISS:    1040330
LLC LOAD         ACCESS:    1484670 HIT:     975190 MISS:     509480
LLC RFO          ACCESS:          0 HIT:          0 MISS:          0
LLC PREFETCH     ACCESS:    1226531 HIT:     695703 MISS:     530828
LLC WRITE        ACCESS:      84707 HIT:      84705 MISS:          2
LLC TRANSLATION  ACCESS:        140 HIT:        120 MISS:         20
LLC PREFETCH REQUESTED:          0 ISSUED:          0 USEFUL:          0 USELESS:          0
LLC AVERAGE MISS LATENCY: 368.1 cycles
cpu0_DTLB TOTAL        ACCESS:    6026861 HIT:    4639078 MISS:    1387783
cpu0_DTLB LOAD         ACCESS:    6026861 HIT:    4639078 MISS:    1387783
cpu0_DTLB RFO          ACCESS:          0 HIT:          0 MISS:          0
cpu0_DTLB PREFETCH     ACCESS:          0 HIT:          0 MISS:          0
cpu0_DTLB WRITE        ACCESS:          0 HIT:          0 MISS:          0
cpu0_DTLB TRANSLATION  ACCESS:          0 HIT:          0 MISS:          0
cpu0_DTLB PREFETCH REQUESTED:          0 ISSUED:          0 USEFUL:          0 USELESS:          0
cpu0_DTLB AVERAGE MISS LATENCY: 6.599 cycles
cpu0_ITLB TOTAL        ACCESS:          0 HIT:          0 MISS:          0
cpu0_ITLB LOAD         ACCESS:          0 HIT:          0 MISS:          0
cpu0_ITLB RFO          ACCESS:          0 HIT:          0 MISS:          0
cpu0_ITLB PREFETCH     ACCESS:          0 HIT:          0 MISS:          0
cpu0_ITLB WRITE        ACCESS:          0 HIT:          0 MISS:          0
cpu0_ITLB TRANSLATION  ACCESS:          0 HIT:          0 MISS:          0
cpu0_ITLB PREFETCH REQUESTED:          0 ISSUED:          0 USEFUL:          0 USELESS:          0
cpu0_ITLB AVERAGE MISS LATENCY: -nan cycles
cpu0_L1D TOTAL        ACCESS:   11122635 HIT:    7297295 MISS:    3825340
cpu0_L1D LOAD         ACCESS:    6463584 HIT:    4522580 MISS:    1941004
cpu0_L1D RFO          ACCESS:          0 HIT:          0 MISS:          0
cpu0_L1D PREFETCH     ACCESS:    4556577 HIT:    2674028 MISS:    1882549
cpu0_L1D WRITE        ACCESS:     100683 HIT:     100683 MISS:          0
cpu0_L1D TRANSLATION  ACCESS:       1791 HIT:          4 MISS:       1787
cpu0_L1D PREFETCH REQUESTED:    7338018 ISSUED:    4556569 USEFUL:     132837 USELESS:    1231582
cpu0_L1D AVERAGE MISS LATENCY: 118.5 cycles
cpu0_L1I TOTAL        ACCESS:          0 HIT:          0 MISS:          0
cpu0_L1I LOAD         ACCESS:          0 HIT:          0 MISS:          0
cpu0_L1I RFO          ACCESS:          0 HIT:          0 MISS:          0
cpu0_L1I PREFETCH     ACCESS:          0 HIT:          0 MISS:          0
cpu0_L1I WRITE        ACCESS:          0 HIT:          0 MISS:          0
cpu0_L1I TRANSLATION  ACCESS:          0 HIT:          0 MISS:          0
cpu0_L1I PREFETCH REQUESTED:          0 ISSUED:          0 USEFUL:          0 USELESS:          0
cpu0_L1I AVERAGE MISS LATENCY: -nan cycles
cpu0_L2C TOTAL        ACCESS:    3256932 HIT:     539807 MISS:    2717125
cpu0_L2C LOAD         ACCESS:    1760313 HIT:     275158 MISS:    1485155
cpu0_L2C RFO          ACCESS:          0 HIT:          0 MISS:          0
cpu0_L2C PREFETCH     ACCESS:    1410100 HIT:     178735 MISS:    1231365
cpu0_L2C WRITE        ACCESS:      84732 HIT:      84267 MISS:        465
cpu0_L2C TRANSLATION  ACCESS:       1787 HIT:       1647 MISS:        140
cpu0_L2C PREFETCH REQUESTED:      45641 ISSUED:      45641 USEFUL:       3855 USELESS:      33710
cpu0_L2C AVERAGE MISS LATENCY: 160.8 cycles
cpu0_STLB TOTAL        ACCESS:    1186645 HIT:    1184857 MISS:       1788
cpu0_STLB LOAD         ACCESS:    1186645 HIT:    1184857 MISS:       1788
cpu0_STLB RFO          ACCESS:          0 HIT:          0 MISS:          0
cpu0_STLB PREFETCH     ACCESS:          0 HIT:          0 MISS:          0
cpu0_STLB WRITE        ACCESS:          0 HIT:          0 MISS:          0
cpu0_STLB TRANSLATION  ACCESS:          0 HIT:          0 MISS:          0
cpu0_STLB PREFETCH REQUESTED:          0 ISSUED:          0 USEFUL:          0 USELESS:          0
cpu0_STLB AVERAGE MISS LATENCY: 225.5 cycles

DRAM Statistics

Channel 0 RQ ROW_BUFFER_HIT:     227559
  ROW_BUFFER_MISS:     810806
 AVG DBUS CONGESTED CYCLE: 3.903
WQ ROW_BUFFER_HIT: Channel 0 
  ROW_BUFFER_MISS:       4998
  FULL:      77157
