WARNING: physical memory size is smaller than virtual memory size.

*** ChampSim Multicore Out-of-Order Simulator ***
Warmup Instructions: 25000000
Simulation Instructions: 25000000
Number of CPUs: 1
Page size: 4096

Off-chip DRAM Size: 4 GiB Channels: 1 Width: 64-bit Data Race: 800 MT/s
Heartbeat CPU 0 instructions: 10000001 cycles: 2500134 heartbeat IPC: 4 cumulative IPC: 4 (Simulation time: 00 hr 00 min 33 sec)
Heartbeat CPU 0 instructions: 20000001 cycles: 5000134 heartbeat IPC: 4 cumulative IPC: 4 (Simulation time: 00 hr 01 min 06 sec)
Warmup finished CPU 0 instructions: 25000001 cycles: 6250135 cumulative IPC: 4 (Simulation time: 00 hr 01 min 23 sec)
Warmup complete CPU 0 instructions: 25000001 cycles: 6250135 cumulative IPC: 4 (Simulation time: 00 hr 01 min 23 sec)
Heartbeat CPU 0 instructions: 30000001 cycles: 31781392 heartbeat IPC: 0.3734 cumulative IPC: 0.1958 (Simulation time: 00 hr 03 min 48 sec)
Heartbeat CPU 0 instructions: 40000002 cycles: 83591325 heartbeat IPC: 0.193 cumulative IPC: 0.1939 (Simulation time: 00 hr 08 min 38 sec)
Heartbeat CPU 0 instructions: 50000000 cycles: 134603509 heartbeat IPC: 0.196 cumulative IPC: 0.1948 (Simulation time: 00 hr 12 min 02 sec)
Simulation finished CPU 0 instructions: 25000000 cycles: 128353376 cumulative IPC: 0.1948 (Simulation time: 00 hr 12 min 02 sec)
Simulation complete CPU 0 instructions: 25000000 cycles: 128353376 cumulative IPC: 0.1948 (Simulation time: 00 hr 12 min 02 sec)

ChampSim completed all CPUs

=== Simulation ===
CPU 0 runs ./gap/cc-13.trace.gz
Region of Interest Statistics

CPU 0 cumulative IPC: 0.1948 instructions: 25000000 cycles: 128353376
CPU 0 Branch Prediction Accuracy: 85.22% MPKI: 29.72 Average ROB Occupancy at Mispredict: 14.83
Branch type MPKI
BRANCH_DIRECT_JUMP: 0
BRANCH_INDIRECT: 0
BRANCH_CONDITIONAL: 29.7
BRANCH_DIRECT_CALL: 0
BRANCH_INDIRECT_CALL: 0
BRANCH_RETURN: 0

LLC TOTAL        ACCESS:    2990779 HIT:    1851436 MISS:    1139343
LLC LOAD         ACCESS:    1510229 HIT:     973779 MISS:     536450
LLC RFO          ACCESS:          0 HIT:          0 MISS:          0
LLC PREFETCH     ACCESS:    1393315 HIT:     790459 MISS:     602856
LLC WRITE        ACCESS:      87062 HIT:      87055 MISS:          7
LLC TRANSLATION  ACCESS:        173 HIT:        143 MISS:         30
LLC PREFETCH REQUESTED:          0 ISSUED:          0 USEFUL:          0 USELESS:          0
LLC AVERAGE MISS LATENCY: 330.7 cycles
cpu0_DTLB TOTAL        ACCESS:    6263337 HIT:    4884838 MISS:    1378499
cpu0_DTLB LOAD         ACCESS:    6263337 HIT:    4884838 MISS:    1378499
cpu0_DTLB RFO          ACCESS:          0 HIT:          0 MISS:          0
cpu0_DTLB PREFETCH     ACCESS:          0 HIT:          0 MISS:          0
cpu0_DTLB WRITE        ACCESS:          0 HIT:          0 MISS:          0
cpu0_DTLB TRANSLATION  ACCESS:          0 HIT:          0 MISS:          0
cpu0_DTLB PREFETCH REQUESTED:          0 ISSUED:          0 USEFUL:          0 USELESS:          0
cpu0_DTLB AVERAGE MISS LATENCY: 6.843 cycles
cpu0_ITLB TOTAL        ACCESS:          0 HIT:          0 MISS:          0
cpu0_ITLB LOAD         ACCESS:          0 HIT:          0 MISS:          0
cpu0_ITLB RFO          ACCESS:          0 HIT:          0 MISS:          0
cpu0_ITLB PREFETCH     ACCESS:          0 HIT:          0 MISS:          0
cpu0_ITLB WRITE        ACCESS:          0 HIT:          0 MISS:          0
cpu0_ITLB TRANSLATION  ACCESS:          0 HIT:          0 MISS:          0
cpu0_ITLB PREFETCH REQUESTED:          0 ISSUED:          0 USEFUL:          0 USELESS:          0
cpu0_ITLB AVERAGE MISS LATENCY: -nan cycles
cpu0_L1D TOTAL        ACCESS:   11927552 HIT:    7924080 MISS:    4003472
cpu0_L1D LOAD         ACCESS:    6615547 HIT:    4672775 MISS:    1942772
cpu0_L1D RFO          ACCESS:          0 HIT:          0 MISS:          0
cpu0_L1D PREFETCH     ACCESS:    5207148 HIT:    3148285 MISS:    2058863
cpu0_L1D WRITE        ACCESS:     103020 HIT:     103020 MISS:          0
cpu0_L1D TRANSLATION  ACCESS:       1837 HIT:          0 MISS:       1837
cpu0_L1D PREFETCH REQUESTED:    7284271 ISSUED:    5207142 USEFUL:     146874 USELESS:    1403727
cpu0_L1D AVERAGE MISS LATENCY: 112.4 cycles
cpu0_L1I TOTAL        ACCESS:          0 HIT:          0 MISS:          0
cpu0_L1I LOAD         ACCESS:          0 HIT:          0 MISS:          0
cpu0_L1I RFO          ACCESS:          0 HIT:          0 MISS:          0
cpu0_L1I PREFETCH     ACCESS:          0 HIT:          0 MISS:          0
cpu0_L1I WRITE        ACCESS:          0 HIT:          0 MISS:          0
cpu0_L1I TRANSLATION  ACCESS:          0 HIT:          0 MISS:          0
cpu0_L1I PREFETCH REQUESTED:          0 ISSUED:          0 USEFUL:          0 USELESS:          0
cpu0_L1I AVERAGE MISS LATENCY: -nan cycles
cpu0_L2C TOTAL        ACCESS:    3509135 HIT:     588342 MISS:    2920793
cpu0_L2C LOAD         ACCESS:    1796031 HIT:     283743 MISS:    1512288
cpu0_L2C RFO          ACCESS:          0 HIT:          0 MISS:          0
cpu0_L2C PREFETCH     ACCESS:    1624167 HIT:     216288 MISS:    1407879
cpu0_L2C WRITE        ACCESS:      87100 HIT:      86647 MISS:        453
cpu0_L2C TRANSLATION  ACCESS:       1837 HIT:       1664 MISS:        173
cpu0_L2C PREFETCH REQUESTED:      73545 ISSUED:      73545 USEFUL:       8469 USELESS:      48637
cpu0_L2C AVERAGE MISS LATENCY: 148.7 cycles
cpu0_STLB TOTAL        ACCESS:    1204974 HIT:    1203140 MISS:       1834
cpu0_STLB LOAD         ACCESS:    1204974 HIT:    1203140 MISS:       1834
cpu0_STLB RFO          ACCESS:          0 HIT:          0 MISS:          0
cpu0_STLB PREFETCH     ACCESS:          0 HIT:          0 MISS:          0
cpu0_STLB WRITE        ACCESS:          0 HIT:          0 MISS:          0
cpu0_STLB TRANSLATION  ACCESS:          0 HIT:          0 MISS:          0
cpu0_STLB PREFETCH REQUESTED:          0 ISSUED:          0 USEFUL:          0 USELESS:          0
cpu0_STLB AVERAGE MISS LATENCY: 224.9 cycles

DRAM Statistics

Channel 0 RQ ROW_BUFFER_HIT:     259074
  ROW_BUFFER_MISS:     877978
 AVG DBUS CONGESTED CYCLE: 3.905
WQ ROW_BUFFER_HIT: Channel 0 
  ROW_BUFFER_MISS:       6960
  FULL:      78198
