WARNING: physical memory size is smaller than virtual memory size.

*** ChampSim Multicore Out-of-Order Simulator ***
Warmup Instructions: 25000000
Simulation Instructions: 25000000
Number of CPUs: 1
Page size: 4096

Off-chip DRAM Size: 4 GiB Channels: 1 Width: 64-bit Data Race: 800 MT/s
Heartbeat CPU 0 instructions: 10000001 cycles: 2500132 heartbeat IPC: 4 cumulative IPC: 4 (Simulation time: 00 hr 00 min 33 sec)
Heartbeat CPU 0 instructions: 20000001 cycles: 5000132 heartbeat IPC: 4 cumulative IPC: 4 (Simulation time: 00 hr 01 min 08 sec)
Warmup finished CPU 0 instructions: 25000001 cycles: 6250133 cumulative IPC: 4 (Simulation time: 00 hr 01 min 25 sec)
Warmup complete CPU 0 instructions: 25000001 cycles: 6250133 cumulative IPC: 4 (Simulation time: 00 hr 01 min 25 sec)
Heartbeat CPU 0 instructions: 30000002 cycles: 27067104 heartbeat IPC: 0.4532 cumulative IPC: 0.2402 (Simulation time: 00 hr 03 min 31 sec)
Heartbeat CPU 0 instructions: 40000000 cycles: 68988699 heartbeat IPC: 0.2385 cumulative IPC: 0.2391 (Simulation time: 00 hr 07 min 45 sec)
Heartbeat CPU 0 instructions: 50000001 cycles: 109402259 heartbeat IPC: 0.2474 cumulative IPC: 0.2424 (Simulation time: 00 hr 11 min 06 sec)
Simulation finished CPU 0 instructions: 25000000 cycles: 103152127 cumulative IPC: 0.2424 (Simulation time: 00 hr 11 min 06 sec)
Simulation complete CPU 0 instructions: 25000000 cycles: 103152127 cumulative IPC: 0.2424 (Simulation time: 00 hr 11 min 06 sec)

ChampSim completed all CPUs

=== Simulation ===
CPU 0 runs ./gap/cc-5.trace.gz
Region of Interest Statistics

CPU 0 cumulative IPC: 0.2424 instructions: 25000000 cycles: 103152127
CPU 0 Branch Prediction Accuracy: 90.5% MPKI: 18.82 Average ROB Occupancy at Mispredict: 30.11
Branch type MPKI
BRANCH_DIRECT_JUMP: 0
BRANCH_INDIRECT: 0
BRANCH_CONDITIONAL: 18.8
BRANCH_DIRECT_CALL: 0
BRANCH_INDIRECT_CALL: 0
BRANCH_RETURN: 0

LLC TOTAL        ACCESS:    2657277 HIT:    1629413 MISS:    1027864
LLC LOAD         ACCESS:    1446055 HIT:     931874 MISS:     514181
LLC RFO          ACCESS:          0 HIT:          0 MISS:          0
LLC PREFETCH     ACCESS:    1123780 HIT:     610128 MISS:     513652
LLC WRITE        ACCESS:      87301 HIT:      87294 MISS:          7
LLC TRANSLATION  ACCESS:        141 HIT:        117 MISS:         24
LLC PREFETCH REQUESTED:          0 ISSUED:          0 USEFUL:          0 USELESS:          0
LLC AVERAGE MISS LATENCY: 402.9 cycles
cpu0_DTLB TOTAL        ACCESS:    5827870 HIT:    4527058 MISS:    1300812
cpu0_DTLB LOAD         ACCESS:    5827870 HIT:    4527058 MISS:    1300812
cpu0_DTLB RFO          ACCESS:          0 HIT:          0 MISS:          0
cpu0_DTLB PREFETCH     ACCESS:          0 HIT:          0 MISS:          0
cpu0_DTLB WRITE        ACCESS:          0 HIT:          0 MISS:          0
cpu0_DTLB TRANSLATION  ACCESS:          0 HIT:          0 MISS:          0
cpu0_DTLB PREFETCH REQUESTED:          0 ISSUED:          0 USEFUL:          0 USELESS:          0
cpu0_DTLB AVERAGE MISS LATENCY: 6.45 cycles
cpu0_ITLB TOTAL        ACCESS:          0 HIT:          0 MISS:          0
cpu0_ITLB LOAD         ACCESS:          0 HIT:          0 MISS:          0
cpu0_ITLB RFO          ACCESS:          0 HIT:          0 MISS:          0
cpu0_ITLB PREFETCH     ACCESS:          0 HIT:          0 MISS:          0
cpu0_ITLB WRITE        ACCESS:          0 HIT:          0 MISS:          0
cpu0_ITLB TRANSLATION  ACCESS:          0 HIT:          0 MISS:          0
cpu0_ITLB PREFETCH REQUESTED:          0 ISSUED:          0 USEFUL:          0 USELESS:          0
cpu0_ITLB AVERAGE MISS LATENCY: -nan cycles
cpu0_L1D TOTAL        ACCESS:   10558394 HIT:    6824447 MISS:    3733947
cpu0_L1D LOAD         ACCESS:    6337530 HIT:    4387312 MISS:    1950218
cpu0_L1D RFO          ACCESS:          0 HIT:          0 MISS:          0
cpu0_L1D PREFETCH     ACCESS:    4116570 HIT:    2334584 MISS:    1781986
cpu0_L1D WRITE        ACCESS:     102550 HIT:     102550 MISS:          0
cpu0_L1D TRANSLATION  ACCESS:       1744 HIT:          1 MISS:       1743
cpu0_L1D PREFETCH REQUESTED:    7499830 ISSUED:    4116571 USEFUL:     134054 USELESS:    1099823
cpu0_L1D AVERAGE MISS LATENCY: 126 cycles
cpu0_L1I TOTAL        ACCESS:          0 HIT:          0 MISS:          0
cpu0_L1I LOAD         ACCESS:          0 HIT:          0 MISS:          0
cpu0_L1I RFO          ACCESS:          0 HIT:          0 MISS:          0
cpu0_L1I PREFETCH     ACCESS:          0 HIT:          0 MISS:          0
cpu0_L1I WRITE        ACCESS:          0 HIT:          0 MISS:          0
cpu0_L1I TRANSLATION  ACCESS:          0 HIT:          0 MISS:          0
cpu0_L1I PREFETCH REQUESTED:          0 ISSUED:          0 USEFUL:          0 USELESS:          0
cpu0_L1I AVERAGE MISS LATENCY: -nan cycles
cpu0_L2C TOTAL        ACCESS:    3124302 HIT:     538238 MISS:    2586064
cpu0_L2C LOAD         ACCESS:    1729783 HIT:     282131 MISS:    1447652
cpu0_L2C RFO          ACCESS:          0 HIT:          0 MISS:          0
cpu0_L2C PREFETCH     ACCESS:    1305426 HIT:     167552 MISS:    1137874
cpu0_L2C WRITE        ACCESS:      87350 HIT:      86953 MISS:        397
cpu0_L2C TRANSLATION  ACCESS:       1743 HIT:       1602 MISS:        141
cpu0_L2C PREFETCH REQUESTED:      71563 ISSUED:      71563 USEFUL:       6768 USELESS:      45254
cpu0_L2C AVERAGE MISS LATENCY: 179.2 cycles
cpu0_STLB TOTAL        ACCESS:    1096158 HIT:    1094418 MISS:       1740
cpu0_STLB LOAD         ACCESS:    1096158 HIT:    1094418 MISS:       1740
cpu0_STLB RFO          ACCESS:          0 HIT:          0 MISS:          0
cpu0_STLB PREFETCH     ACCESS:          0 HIT:          0 MISS:          0
cpu0_STLB WRITE        ACCESS:          0 HIT:          0 MISS:          0
cpu0_STLB TRANSLATION  ACCESS:          0 HIT:          0 MISS:          0
cpu0_STLB PREFETCH REQUESTED:          0 ISSUED:          0 USEFUL:          0 USELESS:          0
cpu0_STLB AVERAGE MISS LATENCY: 224.8 cycles

DRAM Statistics

Channel 0 RQ ROW_BUFFER_HIT:     270410
  ROW_BUFFER_MISS:     754355
 AVG DBUS CONGESTED CYCLE: 3.899
WQ ROW_BUFFER_HIT: Channel 0 
  ROW_BUFFER_MISS:       4534
  FULL:      80534
