WARNING: physical memory size is smaller than virtual memory size.

*** ChampSim Multicore Out-of-Order Simulator ***
Warmup Instructions: 25000000
Simulation Instructions: 25000000
Number of CPUs: 1
Page size: 4096

Off-chip DRAM Size: 4 GiB Channels: 1 Width: 64-bit Data Race: 800 MT/s
Heartbeat CPU 0 instructions: 10000002 cycles: 2500132 heartbeat IPC: 4 cumulative IPC: 4 (Simulation time: 00 hr 00 min 34 sec)
Heartbeat CPU 0 instructions: 20000002 cycles: 5000132 heartbeat IPC: 4 cumulative IPC: 4 (Simulation time: 00 hr 01 min 08 sec)
Warmup finished CPU 0 instructions: 25000002 cycles: 6250133 cumulative IPC: 4 (Simulation time: 00 hr 01 min 26 sec)
Warmup complete CPU 0 instructions: 25000002 cycles: 6250133 cumulative IPC: 4 (Simulation time: 00 hr 01 min 26 sec)
Heartbeat CPU 0 instructions: 30000000 cycles: 33660735 heartbeat IPC: 0.3489 cumulative IPC: 0.1824 (Simulation time: 00 hr 04 min 01 sec)
Heartbeat CPU 0 instructions: 40000000 cycles: 84927082 heartbeat IPC: 0.1951 cumulative IPC: 0.1907 (Simulation time: 00 hr 08 min 50 sec)
Heartbeat CPU 0 instructions: 50000000 cycles: 135829491 heartbeat IPC: 0.1965 cumulative IPC: 0.1929 (Simulation time: 00 hr 12 min 10 sec)
Simulation finished CPU 0 instructions: 25000000 cycles: 129579362 cumulative IPC: 0.1929 (Simulation time: 00 hr 12 min 10 sec)
Simulation complete CPU 0 instructions: 25000000 cycles: 129579362 cumulative IPC: 0.1929 (Simulation time: 00 hr 12 min 10 sec)

ChampSim completed all CPUs

=== Simulation ===
CPU 0 runs ./gap/cc-6.trace.gz
Region of Interest Statistics

CPU 0 cumulative IPC: 0.1929 instructions: 25000000 cycles: 129579362
CPU 0 Branch Prediction Accuracy: 86.05% MPKI: 28.55 Average ROB Occupancy at Mispredict: 15.34
Branch type MPKI
BRANCH_DIRECT_JUMP: 0
BRANCH_INDIRECT: 0
BRANCH_CONDITIONAL: 28.6
BRANCH_DIRECT_CALL: 0
BRANCH_INDIRECT_CALL: 0
BRANCH_RETURN: 0

LLC TOTAL        ACCESS:    3131993 HIT:    1963999 MISS:    1167994
LLC LOAD         ACCESS:    1603215 HIT:    1049720 MISS:     553495
LLC RFO          ACCESS:          0 HIT:          0 MISS:          0
LLC PREFETCH     ACCESS:    1441875 HIT:     827407 MISS:     614468
LLC WRITE        ACCESS:      86801 HIT:      86797 MISS:          4
LLC TRANSLATION  ACCESS:        102 HIT:         75 MISS:         27
LLC PREFETCH REQUESTED:          0 ISSUED:          0 USEFUL:          0 USELESS:          0
LLC AVERAGE MISS LATENCY: 349 cycles
cpu0_DTLB TOTAL        ACCESS:    6368355 HIT:    4843958 MISS:    1524397
cpu0_DTLB LOAD         ACCESS:    6368355 HIT:    4843958 MISS:    1524397
cpu0_DTLB RFO          ACCESS:          0 HIT:          0 MISS:          0
cpu0_DTLB PREFETCH     ACCESS:          0 HIT:          0 MISS:          0
cpu0_DTLB WRITE        ACCESS:          0 HIT:          0 MISS:          0
cpu0_DTLB TRANSLATION  ACCESS:          0 HIT:          0 MISS:          0
cpu0_DTLB PREFETCH REQUESTED:          0 ISSUED:          0 USEFUL:          0 USELESS:          0
cpu0_DTLB AVERAGE MISS LATENCY: 6.812 cycles
cpu0_ITLB TOTAL        ACCESS:          0 HIT:          0 MISS:          0
cpu0_ITLB LOAD         ACCESS:          0 HIT:          0 MISS:          0
cpu0_ITLB RFO          ACCESS:          0 HIT:          0 MISS:          0
cpu0_ITLB PREFETCH     ACCESS:          0 HIT:          0 MISS:          0
cpu0_ITLB WRITE        ACCESS:          0 HIT:          0 MISS:          0
cpu0_ITLB TRANSLATION  ACCESS:          0 HIT:          0 MISS:          0
cpu0_ITLB PREFETCH REQUESTED:          0 ISSUED:          0 USEFUL:          0 USELESS:          0
cpu0_ITLB AVERAGE MISS LATENCY: -nan cycles
cpu0_L1D TOTAL        ACCESS:   12112101 HIT:    7812703 MISS:    4299398
cpu0_L1D LOAD         ACCESS:    6758113 HIT:    4667243 MISS:    2090870
cpu0_L1D RFO          ACCESS:          0 HIT:          0 MISS:          0
cpu0_L1D PREFETCH     ACCESS:    5247567 HIT:    3040971 MISS:    2206596
cpu0_L1D WRITE        ACCESS:     104471 HIT:     104471 MISS:          0
cpu0_L1D TRANSLATION  ACCESS:       1950 HIT:         18 MISS:       1932
cpu0_L1D PREFETCH REQUESTED:    7695400 ISSUED:    5247562 USEFUL:     155674 USELESS:    1462300
cpu0_L1D AVERAGE MISS LATENCY: 113.7 cycles
cpu0_L1I TOTAL        ACCESS:          0 HIT:          0 MISS:          0
cpu0_L1I LOAD         ACCESS:          0 HIT:          0 MISS:          0
cpu0_L1I RFO          ACCESS:          0 HIT:          0 MISS:          0
cpu0_L1I PREFETCH     ACCESS:          0 HIT:          0 MISS:          0
cpu0_L1I WRITE        ACCESS:          0 HIT:          0 MISS:          0
cpu0_L1I TRANSLATION  ACCESS:          0 HIT:          0 MISS:          0
cpu0_L1I PREFETCH REQUESTED:          0 ISSUED:          0 USEFUL:          0 USELESS:          0
cpu0_L1I AVERAGE MISS LATENCY: -nan cycles
cpu0_L2C TOTAL        ACCESS:    3674331 HIT:     622453 MISS:    3051878
cpu0_L2C LOAD         ACCESS:    1914411 HIT:     310209 MISS:    1604202
cpu0_L2C RFO          ACCESS:          0 HIT:          0 MISS:          0
cpu0_L2C PREFETCH     ACCESS:    1671141 HIT:     224080 MISS:    1447061
cpu0_L2C WRITE        ACCESS:      86847 HIT:      86334 MISS:        513
cpu0_L2C TRANSLATION  ACCESS:       1932 HIT:       1830 MISS:        102
cpu0_L2C PREFETCH REQUESTED:      53094 ISSUED:      53094 USEFUL:       6098 USELESS:      39621
cpu0_L2C AVERAGE MISS LATENCY: 153.6 cycles
cpu0_STLB TOTAL        ACCESS:    1326982 HIT:    1325036 MISS:       1946
cpu0_STLB LOAD         ACCESS:    1326982 HIT:    1325036 MISS:       1946
cpu0_STLB RFO          ACCESS:          0 HIT:          0 MISS:          0
cpu0_STLB PREFETCH     ACCESS:          0 HIT:          0 MISS:          0
cpu0_STLB WRITE        ACCESS:          0 HIT:          0 MISS:          0
cpu0_STLB TRANSLATION  ACCESS:          0 HIT:          0 MISS:          0
cpu0_STLB PREFETCH REQUESTED:          0 ISSUED:          0 USEFUL:          0 USELESS:          0
cpu0_STLB AVERAGE MISS LATENCY: 225 cycles

DRAM Statistics

Channel 0 RQ ROW_BUFFER_HIT:     236410
  ROW_BUFFER_MISS:     929480
 AVG DBUS CONGESTED CYCLE: 3.908
WQ ROW_BUFFER_HIT: Channel 0 
  ROW_BUFFER_MISS:       5843
  FULL:      79023
