WARNING: physical memory size is smaller than virtual memory size.

*** ChampSim Multicore Out-of-Order Simulator ***
Warmup Instructions: 25000000
Simulation Instructions: 25000000
Number of CPUs: 1
Page size: 4096

Off-chip DRAM Size: 4 GiB Channels: 1 Width: 64-bit Data Race: 800 MT/s
Heartbeat CPU 0 instructions: 10000002 cycles: 2500127 heartbeat IPC: 4 cumulative IPC: 4 (Simulation time: 00 hr 00 min 31 sec)
Heartbeat CPU 0 instructions: 20000000 cycles: 5000495 heartbeat IPC: 3.999 cumulative IPC: 4 (Simulation time: 00 hr 01 min 12 sec)
Warmup finished CPU 0 instructions: 25000000 cycles: 6250496 cumulative IPC: 4 (Simulation time: 00 hr 01 min 33 sec)
Warmup complete CPU 0 instructions: 25000000 cycles: 6250496 cumulative IPC: 4 (Simulation time: 00 hr 01 min 33 sec)
Heartbeat CPU 0 instructions: 30000002 cycles: 31310608 heartbeat IPC: 0.3801 cumulative IPC: 0.1995 (Simulation time: 00 hr 04 min 56 sec)
Heartbeat CPU 0 instructions: 40000002 cycles: 80900086 heartbeat IPC: 0.2017 cumulative IPC: 0.2009 (Simulation time: 00 hr 11 min 07 sec)
Heartbeat CPU 0 instructions: 50000001 cycles: 131677837 heartbeat IPC: 0.1969 cumulative IPC: 0.1993 (Simulation time: 00 hr 15 min 00 sec)
Simulation finished CPU 0 instructions: 25000001 cycles: 125427342 cumulative IPC: 0.1993 (Simulation time: 00 hr 15 min 00 sec)
Simulation complete CPU 0 instructions: 25000001 cycles: 125427342 cumulative IPC: 0.1993 (Simulation time: 00 hr 15 min 00 sec)

ChampSim completed all CPUs

=== Simulation ===
CPU 0 runs ./gap/pr-10.trace.gz
Region of Interest Statistics

CPU 0 cumulative IPC: 0.1993 instructions: 25000001 cycles: 125427342
CPU 0 Branch Prediction Accuracy: 96.55% MPKI: 6.604 Average ROB Occupancy at Mispredict: 289.6
Branch type MPKI
BRANCH_DIRECT_JUMP: 0
BRANCH_INDIRECT: 0
BRANCH_CONDITIONAL: 6.6
BRANCH_DIRECT_CALL: 0
BRANCH_INDIRECT_CALL: 0
BRANCH_RETURN: 0

LLC TOTAL        ACCESS:    4745839 HIT:    2681979 MISS:    2063860
LLC LOAD         ACCESS:    3727895 HIT:    2422242 MISS:    1305653
LLC RFO          ACCESS:          0 HIT:          0 MISS:          0
LLC PREFETCH     ACCESS:    1007910 HIT:     249780 MISS:     758130
LLC WRITE        ACCESS:       9506 HIT:       9495 MISS:         11
LLC TRANSLATION  ACCESS:        528 HIT:        462 MISS:         66
LLC PREFETCH REQUESTED:          0 ISSUED:          0 USEFUL:          0 USELESS:          0
LLC AVERAGE MISS LATENCY: 1031 cycles
cpu0_DTLB TOTAL        ACCESS:    5772862 HIT:    2347236 MISS:    3425626
cpu0_DTLB LOAD         ACCESS:    5772862 HIT:    2347236 MISS:    3425626
cpu0_DTLB RFO          ACCESS:          0 HIT:          0 MISS:          0
cpu0_DTLB PREFETCH     ACCESS:          0 HIT:          0 MISS:          0
cpu0_DTLB WRITE        ACCESS:          0 HIT:          0 MISS:          0
cpu0_DTLB TRANSLATION  ACCESS:          0 HIT:          0 MISS:          0
cpu0_DTLB PREFETCH REQUESTED:          0 ISSUED:          0 USEFUL:          0 USELESS:          0
cpu0_DTLB AVERAGE MISS LATENCY: 6.341 cycles
cpu0_ITLB TOTAL        ACCESS:          0 HIT:          0 MISS:          0
cpu0_ITLB LOAD         ACCESS:          0 HIT:          0 MISS:          0
cpu0_ITLB RFO          ACCESS:          0 HIT:          0 MISS:          0
cpu0_ITLB PREFETCH     ACCESS:          0 HIT:          0 MISS:          0
cpu0_ITLB WRITE        ACCESS:          0 HIT:          0 MISS:          0
cpu0_ITLB TRANSLATION  ACCESS:          0 HIT:          0 MISS:          0
cpu0_ITLB PREFETCH REQUESTED:          0 ISSUED:          0 USEFUL:          0 USELESS:          0
cpu0_ITLB AVERAGE MISS LATENCY: -nan cycles
cpu0_L1D TOTAL        ACCESS:    7431845 HIT:    1501024 MISS:    5930821
cpu0_L1D LOAD         ACCESS:    5683934 HIT:     836459 MISS:    4847475
cpu0_L1D RFO          ACCESS:          0 HIT:          0 MISS:          0
cpu0_L1D PREFETCH     ACCESS:    1510956 HIT:     432416 MISS:    1078540
cpu0_L1D WRITE        ACCESS:     232138 HIT:     232138 MISS:          0
cpu0_L1D TRANSLATION  ACCESS:       4817 HIT:         11 MISS:       4806
cpu0_L1D PREFETCH REQUESTED:  114456083 ISSUED:    1510955 USEFUL:      64615 USELESS:     394029
cpu0_L1D AVERAGE MISS LATENCY: 328.4 cycles
cpu0_L1I TOTAL        ACCESS:          0 HIT:          0 MISS:          0
cpu0_L1I LOAD         ACCESS:          0 HIT:          0 MISS:          0
cpu0_L1I RFO          ACCESS:          0 HIT:          0 MISS:          0
cpu0_L1I PREFETCH     ACCESS:          0 HIT:          0 MISS:          0
cpu0_L1I WRITE        ACCESS:          0 HIT:          0 MISS:          0
cpu0_L1I TRANSLATION  ACCESS:          0 HIT:          0 MISS:          0
cpu0_L1I PREFETCH REQUESTED:          0 ISSUED:          0 USEFUL:          0 USELESS:          0
cpu0_L1I AVERAGE MISS LATENCY: -nan cycles
cpu0_L2C TOTAL        ACCESS:    5793798 HIT:     819777 MISS:    4974021
cpu0_L2C LOAD         ACCESS:    4564713 HIT:     754086 MISS:    3810627
cpu0_L2C RFO          ACCESS:          0 HIT:          0 MISS:          0
cpu0_L2C PREFETCH     ACCESS:    1211782 HIT:      49135 MISS:    1162647
cpu0_L2C WRITE        ACCESS:      12497 HIT:      12278 MISS:        219
cpu0_L2C TRANSLATION  ACCESS:       4806 HIT:       4278 MISS:        528
cpu0_L2C PREFETCH REQUESTED:     753085 ISSUED:     753085 USEFUL:     137697 USELESS:      21104
cpu0_L2C AVERAGE MISS LATENCY: 400.2 cycles
cpu0_STLB TOTAL        ACCESS:    2914695 HIT:    2909886 MISS:       4809
cpu0_STLB LOAD         ACCESS:    2914695 HIT:    2909886 MISS:       4809
cpu0_STLB RFO          ACCESS:          0 HIT:          0 MISS:          0
cpu0_STLB PREFETCH     ACCESS:          0 HIT:          0 MISS:          0
cpu0_STLB WRITE        ACCESS:          0 HIT:          0 MISS:          0
cpu0_STLB TRANSLATION  ACCESS:          0 HIT:          0 MISS:          0
cpu0_STLB PREFETCH REQUESTED:          0 ISSUED:          0 USEFUL:          0 USELESS:          0
cpu0_STLB AVERAGE MISS LATENCY: 383 cycles

DRAM Statistics

Channel 0 RQ ROW_BUFFER_HIT:     258546
  ROW_BUFFER_MISS:    1504821
 AVG DBUS CONGESTED CYCLE: 3.962
WQ ROW_BUFFER_HIT: Channel 0 
  ROW_BUFFER_MISS:       2873
  FULL:       6173
