WARNING: physical memory size is smaller than virtual memory size.

*** ChampSim Multicore Out-of-Order Simulator ***
Warmup Instructions: 25000000
Simulation Instructions: 25000000
Number of CPUs: 1
Page size: 4096

Off-chip DRAM Size: 4 GiB Channels: 1 Width: 64-bit Data Race: 800 MT/s
Heartbeat CPU 0 instructions: 10000002 cycles: 2500138 heartbeat IPC: 4 cumulative IPC: 4 (Simulation time: 00 hr 00 min 32 sec)
Heartbeat CPU 0 instructions: 20000002 cycles: 5000138 heartbeat IPC: 4 cumulative IPC: 4 (Simulation time: 00 hr 01 min 09 sec)
Warmup finished CPU 0 instructions: 25000002 cycles: 6250139 cumulative IPC: 4 (Simulation time: 00 hr 01 min 28 sec)
Warmup complete CPU 0 instructions: 25000002 cycles: 6250139 cumulative IPC: 4 (Simulation time: 00 hr 01 min 28 sec)
Heartbeat CPU 0 instructions: 30000001 cycles: 38479924 heartbeat IPC: 0.2987 cumulative IPC: 0.1551 (Simulation time: 00 hr 06 min 00 sec)
Heartbeat CPU 0 instructions: 40000000 cycles: 103400900 heartbeat IPC: 0.154 cumulative IPC: 0.1544 (Simulation time: 00 hr 12 min 52 sec)
Heartbeat CPU 0 instructions: 50000000 cycles: 168436216 heartbeat IPC: 0.1538 cumulative IPC: 0.1541 (Simulation time: 00 hr 17 min 15 sec)
Simulation finished CPU 0 instructions: 25000002 cycles: 162186079 cumulative IPC: 0.1541 (Simulation time: 00 hr 17 min 15 sec)
Simulation complete CPU 0 instructions: 25000002 cycles: 162186079 cumulative IPC: 0.1541 (Simulation time: 00 hr 17 min 15 sec)

ChampSim completed all CPUs

=== Simulation ===
CPU 0 runs ./gap/pr-14.trace.gz
Region of Interest Statistics

CPU 0 cumulative IPC: 0.1541 instructions: 25000002 cycles: 162186079
CPU 0 Branch Prediction Accuracy: 96.45% MPKI: 6.777 Average ROB Occupancy at Mispredict: 269.2
Branch type MPKI
BRANCH_DIRECT_JUMP: 0
BRANCH_INDIRECT: 0
BRANCH_CONDITIONAL: 6.78
BRANCH_DIRECT_CALL: 0
BRANCH_INDIRECT_CALL: 0
BRANCH_RETURN: 0

LLC TOTAL        ACCESS:    4647152 HIT:    2148011 MISS:    2499141
LLC LOAD         ACCESS:    3847888 HIT:    1995101 MISS:    1852787
LLC RFO          ACCESS:          0 HIT:          0 MISS:          0
LLC PREFETCH     ACCESS:     789599 HIT:     143289 MISS:     646310
LLC WRITE        ACCESS:       9258 HIT:       9255 MISS:          3
LLC TRANSLATION  ACCESS:        407 HIT:        366 MISS:         41
LLC PREFETCH REQUESTED:          0 ISSUED:          0 USEFUL:          0 USELESS:          0
LLC AVERAGE MISS LATENCY: 1101 cycles
cpu0_DTLB TOTAL        ACCESS:    5648077 HIT:    2095691 MISS:    3552386
cpu0_DTLB LOAD         ACCESS:    5648077 HIT:    2095691 MISS:    3552386
cpu0_DTLB RFO          ACCESS:          0 HIT:          0 MISS:          0
cpu0_DTLB PREFETCH     ACCESS:          0 HIT:          0 MISS:          0
cpu0_DTLB WRITE        ACCESS:          0 HIT:          0 MISS:          0
cpu0_DTLB TRANSLATION  ACCESS:          0 HIT:          0 MISS:          0
cpu0_DTLB PREFETCH REQUESTED:          0 ISSUED:          0 USEFUL:          0 USELESS:          0
cpu0_DTLB AVERAGE MISS LATENCY: 6.445 cycles
cpu0_ITLB TOTAL        ACCESS:          0 HIT:          0 MISS:          0
cpu0_ITLB LOAD         ACCESS:          0 HIT:          0 MISS:          0
cpu0_ITLB RFO          ACCESS:          0 HIT:          0 MISS:          0
cpu0_ITLB PREFETCH     ACCESS:          0 HIT:          0 MISS:          0
cpu0_ITLB WRITE        ACCESS:          0 HIT:          0 MISS:          0
cpu0_ITLB TRANSLATION  ACCESS:          0 HIT:          0 MISS:          0
cpu0_ITLB PREFETCH REQUESTED:          0 ISSUED:          0 USEFUL:          0 USELESS:          0
cpu0_ITLB AVERAGE MISS LATENCY: -nan cycles
cpu0_L1D TOTAL        ACCESS:    6983644 HIT:    1414026 MISS:    5569618
cpu0_L1D LOAD         ACCESS:    5532222 HIT:     791475 MISS:    4740747
cpu0_L1D RFO          ACCESS:          0 HIT:          0 MISS:          0
cpu0_L1D PREFETCH     ACCESS:    1214580 HIT:     390526 MISS:     824054
cpu0_L1D WRITE        ACCESS:     232025 HIT:     232025 MISS:          0
cpu0_L1D TRANSLATION  ACCESS:       4817 HIT:          0 MISS:       4817
cpu0_L1D PREFETCH REQUESTED:  154181663 ISSUED:    1214582 USEFUL:      58021 USELESS:     257065
cpu0_L1D AVERAGE MISS LATENCY: 458.2 cycles
cpu0_L1I TOTAL        ACCESS:          0 HIT:          0 MISS:          0
cpu0_L1I LOAD         ACCESS:          0 HIT:          0 MISS:          0
cpu0_L1I RFO          ACCESS:          0 HIT:          0 MISS:          0
cpu0_L1I PREFETCH     ACCESS:          0 HIT:          0 MISS:          0
cpu0_L1I WRITE        ACCESS:          0 HIT:          0 MISS:          0
cpu0_L1I TRANSLATION  ACCESS:          0 HIT:          0 MISS:          0
cpu0_L1I PREFETCH REQUESTED:          0 ISSUED:          0 USEFUL:          0 USELESS:          0
cpu0_L1I AVERAGE MISS LATENCY: -nan cycles
cpu0_L2C TOTAL        ACCESS:    5639632 HIT:     806699 MISS:    4832933
cpu0_L2C LOAD         ACCESS:    4576684 HIT:     700523 MISS:    3876161
cpu0_L2C RFO          ACCESS:          0 HIT:          0 MISS:          0
cpu0_L2C PREFETCH     ACCESS:    1045089 HIT:      88731 MISS:     956358
cpu0_L2C WRITE        ACCESS:      13042 HIT:      13035 MISS:          7
cpu0_L2C TRANSLATION  ACCESS:       4817 HIT:       4410 MISS:        407
cpu0_L2C PREFETCH REQUESTED:     729984 ISSUED:     729984 USEFUL:     172273 USELESS:      15541
cpu0_L2C AVERAGE MISS LATENCY: 546.6 cycles
cpu0_STLB TOTAL        ACCESS:    3028136 HIT:    3023328 MISS:       4808
cpu0_STLB LOAD         ACCESS:    3028136 HIT:    3023328 MISS:       4808
cpu0_STLB RFO          ACCESS:          0 HIT:          0 MISS:          0
cpu0_STLB PREFETCH     ACCESS:          0 HIT:          0 MISS:          0
cpu0_STLB WRITE        ACCESS:          0 HIT:          0 MISS:          0
cpu0_STLB TRANSLATION  ACCESS:          0 HIT:          0 MISS:          0
cpu0_STLB PREFETCH REQUESTED:          0 ISSUED:          0 USEFUL:          0 USELESS:          0
cpu0_STLB AVERAGE MISS LATENCY: 443.3 cycles

DRAM Statistics

Channel 0 RQ ROW_BUFFER_HIT:     341103
  ROW_BUFFER_MISS:    1936727
 AVG DBUS CONGESTED CYCLE: 3.961
WQ ROW_BUFFER_HIT: Channel 0 
  ROW_BUFFER_MISS:       2578
  FULL:       7243
