WARNING: physical memory size is smaller than virtual memory size.

*** ChampSim Multicore Out-of-Order Simulator ***
Warmup Instructions: 25000000
Simulation Instructions: 25000000
Number of CPUs: 1
Page size: 4096

Off-chip DRAM Size: 4 GiB Channels: 1 Width: 64-bit Data Race: 800 MT/s
Heartbeat CPU 0 instructions: 10000000 cycles: 2500129 heartbeat IPC: 4 cumulative IPC: 4 (Simulation time: 00 hr 00 min 32 sec)
Heartbeat CPU 0 instructions: 20000002 cycles: 5000208 heartbeat IPC: 4 cumulative IPC: 4 (Simulation time: 00 hr 01 min 12 sec)
Warmup finished CPU 0 instructions: 25000002 cycles: 6250209 cumulative IPC: 4 (Simulation time: 00 hr 01 min 34 sec)
Warmup complete CPU 0 instructions: 25000002 cycles: 6250209 cumulative IPC: 4 (Simulation time: 00 hr 01 min 34 sec)
Heartbeat CPU 0 instructions: 30000000 cycles: 39740558 heartbeat IPC: 0.2878 cumulative IPC: 0.1493 (Simulation time: 00 hr 06 min 00 sec)
Heartbeat CPU 0 instructions: 40000000 cycles: 106151390 heartbeat IPC: 0.1506 cumulative IPC: 0.1501 (Simulation time: 00 hr 12 min 58 sec)
Heartbeat CPU 0 instructions: 50000001 cycles: 172435351 heartbeat IPC: 0.1509 cumulative IPC: 0.1504 (Simulation time: 00 hr 17 min 24 sec)
Simulation finished CPU 0 instructions: 25000003 cycles: 166185144 cumulative IPC: 0.1504 (Simulation time: 00 hr 17 min 24 sec)
Simulation complete CPU 0 instructions: 25000003 cycles: 166185144 cumulative IPC: 0.1504 (Simulation time: 00 hr 17 min 24 sec)

ChampSim completed all CPUs

=== Simulation ===
CPU 0 runs ./gap/pr-3.trace.gz
Region of Interest Statistics

CPU 0 cumulative IPC: 0.1504 instructions: 25000003 cycles: 166185144
CPU 0 Branch Prediction Accuracy: 96.41% MPKI: 6.854 Average ROB Occupancy at Mispredict: 266.8
Branch type MPKI
BRANCH_DIRECT_JUMP: 0
BRANCH_INDIRECT: 0
BRANCH_CONDITIONAL: 6.85
BRANCH_DIRECT_CALL: 0
BRANCH_INDIRECT_CALL: 0
BRANCH_RETURN: 0

LLC TOTAL        ACCESS:    4650533 HIT:    2097112 MISS:    2553421
LLC LOAD         ACCESS:    3863779 HIT:    1960677 MISS:    1903102
LLC RFO          ACCESS:          0 HIT:          0 MISS:          0
LLC PREFETCH     ACCESS:     776290 HIT:     126049 MISS:     650241
LLC WRITE        ACCESS:       9975 HIT:       9947 MISS:         28
LLC TRANSLATION  ACCESS:        489 HIT:        439 MISS:         50
LLC PREFETCH REQUESTED:          0 ISSUED:          0 USEFUL:          0 USELESS:          0
LLC AVERAGE MISS LATENCY: 1107 cycles
cpu0_DTLB TOTAL        ACCESS:    5636281 HIT:    2077558 MISS:    3558723
cpu0_DTLB LOAD         ACCESS:    5636281 HIT:    2077558 MISS:    3558723
cpu0_DTLB RFO          ACCESS:          0 HIT:          0 MISS:          0
cpu0_DTLB PREFETCH     ACCESS:          0 HIT:          0 MISS:          0
cpu0_DTLB WRITE        ACCESS:          0 HIT:          0 MISS:          0
cpu0_DTLB TRANSLATION  ACCESS:          0 HIT:          0 MISS:          0
cpu0_DTLB PREFETCH REQUESTED:          0 ISSUED:          0 USEFUL:          0 USELESS:          0
cpu0_DTLB AVERAGE MISS LATENCY: 6.493 cycles
cpu0_ITLB TOTAL        ACCESS:          0 HIT:          0 MISS:          0
cpu0_ITLB LOAD         ACCESS:          0 HIT:          0 MISS:          0
cpu0_ITLB RFO          ACCESS:          0 HIT:          0 MISS:          0
cpu0_ITLB PREFETCH     ACCESS:          0 HIT:          0 MISS:          0
cpu0_ITLB WRITE        ACCESS:          0 HIT:          0 MISS:          0
cpu0_ITLB TRANSLATION  ACCESS:          0 HIT:          0 MISS:          0
cpu0_ITLB PREFETCH REQUESTED:          0 ISSUED:          0 USEFUL:          0 USELESS:          0
cpu0_ITLB AVERAGE MISS LATENCY: -nan cycles
cpu0_L1D TOTAL        ACCESS:    6903203 HIT:    1432003 MISS:    5471200
cpu0_L1D LOAD         ACCESS:    5506496 HIT:     805298 MISS:    4701198
cpu0_L1D RFO          ACCESS:          0 HIT:          0 MISS:          0
cpu0_L1D PREFETCH     ACCESS:    1156795 HIT:     392095 MISS:     764700
cpu0_L1D WRITE        ACCESS:     235096 HIT:     234590 MISS:        506
cpu0_L1D TRANSLATION  ACCESS:       4816 HIT:         20 MISS:       4796
cpu0_L1D PREFETCH REQUESTED:  158611140 ISSUED:    1156795 USEFUL:      56567 USELESS:     230770
cpu0_L1D AVERAGE MISS LATENCY: 479.2 cycles
cpu0_L1I TOTAL        ACCESS:          0 HIT:          0 MISS:          0
cpu0_L1I LOAD         ACCESS:          0 HIT:          0 MISS:          0
cpu0_L1I RFO          ACCESS:          0 HIT:          0 MISS:          0
cpu0_L1I PREFETCH     ACCESS:          0 HIT:          0 MISS:          0
cpu0_L1I WRITE        ACCESS:          0 HIT:          0 MISS:          0
cpu0_L1I TRANSLATION  ACCESS:          0 HIT:          0 MISS:          0
cpu0_L1I PREFETCH REQUESTED:          0 ISSUED:          0 USEFUL:          0 USELESS:          0
cpu0_L1I AVERAGE MISS LATENCY: -nan cycles
cpu0_L2C TOTAL        ACCESS:    5612617 HIT:     781016 MISS:    4831601
cpu0_L2C LOAD         ACCESS:    4569006 HIT:     679906 MISS:    3889100
cpu0_L2C RFO          ACCESS:        414 HIT:        414 MISS:          0
cpu0_L2C PREFETCH     ACCESS:    1024575 HIT:      82860 MISS:     941715
cpu0_L2C WRITE        ACCESS:      13826 HIT:      13529 MISS:        297
cpu0_L2C TRANSLATION  ACCESS:       4796 HIT:       4307 MISS:        489
cpu0_L2C PREFETCH REQUESTED:     737194 ISSUED:     737194 USEFUL:     174800 USELESS:      12748
cpu0_L2C AVERAGE MISS LATENCY: 561.7 cycles
cpu0_STLB TOTAL        ACCESS:    3044765 HIT:    3039958 MISS:       4807
cpu0_STLB LOAD         ACCESS:    3044765 HIT:    3039958 MISS:       4807
cpu0_STLB RFO          ACCESS:          0 HIT:          0 MISS:          0
cpu0_STLB PREFETCH     ACCESS:          0 HIT:          0 MISS:          0
cpu0_STLB WRITE        ACCESS:          0 HIT:          0 MISS:          0
cpu0_STLB TRANSLATION  ACCESS:          0 HIT:          0 MISS:          0
cpu0_STLB PREFETCH REQUESTED:          0 ISSUED:          0 USEFUL:          0 USELESS:          0
cpu0_STLB AVERAGE MISS LATENCY: 453.9 cycles

DRAM Statistics

Channel 0 RQ ROW_BUFFER_HIT:     344186
  ROW_BUFFER_MISS:    1985799
 AVG DBUS CONGESTED CYCLE: 3.962
WQ ROW_BUFFER_HIT: Channel 0 
  ROW_BUFFER_MISS:       2485
  FULL:       7153
