WARNING: physical memory size is smaller than virtual memory size.

*** ChampSim Multicore Out-of-Order Simulator ***
Warmup Instructions: 25000000
Simulation Instructions: 25000000
Number of CPUs: 1
Page size: 4096

Off-chip DRAM Size: 4 GiB Channels: 1 Width: 64-bit Data Race: 800 MT/s
Heartbeat CPU 0 instructions: 10000000 cycles: 2500133 heartbeat IPC: 4 cumulative IPC: 4 (Simulation time: 00 hr 00 min 32 sec)
Heartbeat CPU 0 instructions: 20000002 cycles: 5000211 heartbeat IPC: 4 cumulative IPC: 4 (Simulation time: 00 hr 01 min 12 sec)
Warmup finished CPU 0 instructions: 25000002 cycles: 6250212 cumulative IPC: 4 (Simulation time: 00 hr 01 min 33 sec)
Warmup complete CPU 0 instructions: 25000002 cycles: 6250212 cumulative IPC: 4 (Simulation time: 00 hr 01 min 33 sec)
Heartbeat CPU 0 instructions: 30000002 cycles: 41719240 heartbeat IPC: 0.2723 cumulative IPC: 0.141 (Simulation time: 00 hr 06 min 14 sec)
Heartbeat CPU 0 instructions: 40000001 cycles: 111589931 heartbeat IPC: 0.1431 cumulative IPC: 0.1424 (Simulation time: 00 hr 13 min 16 sec)
Heartbeat CPU 0 instructions: 50000002 cycles: 181489588 heartbeat IPC: 0.1431 cumulative IPC: 0.1427 (Simulation time: 00 hr 17 min 42 sec)
Simulation finished CPU 0 instructions: 25000000 cycles: 175239377 cumulative IPC: 0.1427 (Simulation time: 00 hr 17 min 42 sec)
Simulation complete CPU 0 instructions: 25000000 cycles: 175239377 cumulative IPC: 0.1427 (Simulation time: 00 hr 17 min 42 sec)

ChampSim completed all CPUs

=== Simulation ===
CPU 0 runs ./gap/pr-5.trace.gz
Region of Interest Statistics

CPU 0 cumulative IPC: 0.1427 instructions: 25000000 cycles: 175239377
CPU 0 Branch Prediction Accuracy: 96.41% MPKI: 6.854 Average ROB Occupancy at Mispredict: 258.3
Branch type MPKI
BRANCH_DIRECT_JUMP: 0
BRANCH_INDIRECT: 0
BRANCH_CONDITIONAL: 6.85
BRANCH_DIRECT_CALL: 0
BRANCH_INDIRECT_CALL: 0
BRANCH_RETURN: 0

LLC TOTAL        ACCESS:    4719140 HIT:    2016020 MISS:    2703120
LLC LOAD         ACCESS:    3938291 HIT:    1904729 MISS:    2033562
LLC RFO          ACCESS:          0 HIT:          0 MISS:          0
LLC PREFETCH     ACCESS:     771037 HIT:     101524 MISS:     669513
LLC WRITE        ACCESS:       9293 HIT:       9288 MISS:          5
LLC TRANSLATION  ACCESS:        519 HIT:        479 MISS:         40
LLC PREFETCH REQUESTED:          0 ISSUED:          0 USEFUL:          0 USELESS:          0
LLC AVERAGE MISS LATENCY: 1109 cycles
cpu0_DTLB TOTAL        ACCESS:    5579475 HIT:    2036791 MISS:    3542684
cpu0_DTLB LOAD         ACCESS:    5579475 HIT:    2036791 MISS:    3542684
cpu0_DTLB RFO          ACCESS:          0 HIT:          0 MISS:          0
cpu0_DTLB PREFETCH     ACCESS:          0 HIT:          0 MISS:          0
cpu0_DTLB WRITE        ACCESS:          0 HIT:          0 MISS:          0
cpu0_DTLB TRANSLATION  ACCESS:          0 HIT:          0 MISS:          0
cpu0_DTLB PREFETCH REQUESTED:          0 ISSUED:          0 USEFUL:          0 USELESS:          0
cpu0_DTLB AVERAGE MISS LATENCY: 6.522 cycles
cpu0_ITLB TOTAL        ACCESS:          0 HIT:          0 MISS:          0
cpu0_ITLB LOAD         ACCESS:          0 HIT:          0 MISS:          0
cpu0_ITLB RFO          ACCESS:          0 HIT:          0 MISS:          0
cpu0_ITLB PREFETCH     ACCESS:          0 HIT:          0 MISS:          0
cpu0_ITLB WRITE        ACCESS:          0 HIT:          0 MISS:          0
cpu0_ITLB TRANSLATION  ACCESS:          0 HIT:          0 MISS:          0
cpu0_ITLB PREFETCH REQUESTED:          0 ISSUED:          0 USEFUL:          0 USELESS:          0
cpu0_ITLB AVERAGE MISS LATENCY: -nan cycles
cpu0_L1D TOTAL        ACCESS:    6694559 HIT:    1380816 MISS:    5313743
cpu0_L1D LOAD         ACCESS:    5429240 HIT:     779091 MISS:    4650149
cpu0_L1D RFO          ACCESS:          0 HIT:          0 MISS:          0
cpu0_L1D PREFETCH     ACCESS:    1026308 HIT:     367528 MISS:     658780
cpu0_L1D WRITE        ACCESS:     234196 HIT:     234196 MISS:          0
cpu0_L1D TRANSLATION  ACCESS:       4815 HIT:          1 MISS:       4814
cpu0_L1D PREFETCH REQUESTED:  168100155 ISSUED:    1026307 USEFUL:      52557 USELESS:     194291
cpu0_L1D AVERAGE MISS LATENCY: 521.9 cycles
cpu0_L1I TOTAL        ACCESS:          0 HIT:          0 MISS:          0
cpu0_L1I LOAD         ACCESS:          0 HIT:          0 MISS:          0
cpu0_L1I RFO          ACCESS:          0 HIT:          0 MISS:          0
cpu0_L1I PREFETCH     ACCESS:          0 HIT:          0 MISS:          0
cpu0_L1I WRITE        ACCESS:          0 HIT:          0 MISS:          0
cpu0_L1I TRANSLATION  ACCESS:          0 HIT:          0 MISS:          0
cpu0_L1I PREFETCH REQUESTED:          0 ISSUED:          0 USEFUL:          0 USELESS:          0
cpu0_L1I AVERAGE MISS LATENCY: -nan cycles
cpu0_L2C TOTAL        ACCESS:    5603719 HIT:     713390 MISS:    4890329
cpu0_L2C LOAD         ACCESS:    4568068 HIT:     611871 MISS:    3956197
cpu0_L2C RFO          ACCESS:          0 HIT:          0 MISS:          0
cpu0_L2C PREFETCH     ACCESS:    1018139 HIT:      84526 MISS:     933613
cpu0_L2C WRITE        ACCESS:      12698 HIT:      12698 MISS:          0
cpu0_L2C TRANSLATION  ACCESS:       4814 HIT:       4295 MISS:        519
cpu0_L2C PREFETCH REQUESTED:     771288 ISSUED:     771288 USEFUL:     181967 USELESS:       8371
cpu0_L2C AVERAGE MISS LATENCY: 587.6 cycles
cpu0_STLB TOTAL        ACCESS:    3039092 HIT:    3034285 MISS:       4807
cpu0_STLB LOAD         ACCESS:    3039092 HIT:    3034285 MISS:       4807
cpu0_STLB RFO          ACCESS:          0 HIT:          0 MISS:          0
cpu0_STLB PREFETCH     ACCESS:          0 HIT:          0 MISS:          0
cpu0_STLB WRITE        ACCESS:          0 HIT:          0 MISS:          0
cpu0_STLB TRANSLATION  ACCESS:          0 HIT:          0 MISS:          0
cpu0_STLB PREFETCH REQUESTED:          0 ISSUED:          0 USEFUL:          0 USELESS:          0
cpu0_STLB AVERAGE MISS LATENCY: 470.6 cycles

DRAM Statistics

Channel 0 RQ ROW_BUFFER_HIT:     391720
  ROW_BUFFER_MISS:    2079863
 AVG DBUS CONGESTED CYCLE: 3.962
WQ ROW_BUFFER_HIT: Channel 0 
  ROW_BUFFER_MISS:       2491
  FULL:       6771
