WARNING: physical memory size is smaller than virtual memory size.

*** ChampSim Multicore Out-of-Order Simulator ***
Warmup Instructions: 25000000
Simulation Instructions: 25000000
Number of CPUs: 1
Page size: 4096

Off-chip DRAM Size: 4 GiB Channels: 1 Width: 64-bit Data Race: 800 MT/s
Heartbeat CPU 0 instructions: 10000003 cycles: 2501469 heartbeat IPC: 3.998 cumulative IPC: 3.998 (Simulation time: 00 hr 00 min 34 sec)
Heartbeat CPU 0 instructions: 20000000 cycles: 5005190 heartbeat IPC: 3.994 cumulative IPC: 3.996 (Simulation time: 00 hr 01 min 10 sec)
Warmup finished CPU 0 instructions: 25000001 cycles: 6257358 cumulative IPC: 3.995 (Simulation time: 00 hr 01 min 29 sec)
Warmup complete CPU 0 instructions: 25000001 cycles: 6257358 cumulative IPC: 3.995 (Simulation time: 00 hr 01 min 29 sec)
Heartbeat CPU 0 instructions: 30000002 cycles: 24610052 heartbeat IPC: 0.5101 cumulative IPC: 0.2724 (Simulation time: 00 hr 03 min 09 sec)
Heartbeat CPU 0 instructions: 40000003 cycles: 57898942 heartbeat IPC: 0.3004 cumulative IPC: 0.2905 (Simulation time: 00 hr 06 min 19 sec)
Heartbeat CPU 0 instructions: 50000000 cycles: 89536422 heartbeat IPC: 0.3161 cumulative IPC: 0.3002 (Simulation time: 00 hr 09 min 27 sec)
Simulation finished CPU 0 instructions: 25000002 cycles: 83279066 cumulative IPC: 0.3002 (Simulation time: 00 hr 09 min 27 sec)
Simulation complete CPU 0 instructions: 25000002 cycles: 83279066 cumulative IPC: 0.3002 (Simulation time: 00 hr 09 min 27 sec)

ChampSim completed all CPUs

=== Simulation ===
CPU 0 runs ./gap/sssp-10.trace.gz
Region of Interest Statistics

CPU 0 cumulative IPC: 0.3002 instructions: 25000002 cycles: 83279066
CPU 0 Branch Prediction Accuracy: 94.52% MPKI: 8.069 Average ROB Occupancy at Mispredict: 78.63
Branch type MPKI
BRANCH_DIRECT_JUMP: 0
BRANCH_INDIRECT: 0
BRANCH_CONDITIONAL: 8.07
BRANCH_DIRECT_CALL: 0
BRANCH_INDIRECT_CALL: 0
BRANCH_RETURN: 0

LLC TOTAL        ACCESS:    1879825 HIT:     972919 MISS:     906906
LLC LOAD         ACCESS:     928136 HIT:     487936 MISS:     440200
LLC RFO          ACCESS:      55167 HIT:      28916 MISS:      26251
LLC PREFETCH     ACCESS:     639851 HIT:     203994 MISS:     435857
LLC WRITE        ACCESS:     252631 HIT:     251403 MISS:       1228
LLC TRANSLATION  ACCESS:       4040 HIT:        670 MISS:       3370
LLC PREFETCH REQUESTED:          0 ISSUED:          0 USEFUL:          0 USELESS:          0
LLC AVERAGE MISS LATENCY: 454.2 cycles
cpu0_DTLB TOTAL        ACCESS:    5612019 HIT:    5003414 MISS:     608605
cpu0_DTLB LOAD         ACCESS:    5612019 HIT:    5003414 MISS:     608605
cpu0_DTLB RFO          ACCESS:          0 HIT:          0 MISS:          0
cpu0_DTLB PREFETCH     ACCESS:          0 HIT:          0 MISS:          0
cpu0_DTLB WRITE        ACCESS:          0 HIT:          0 MISS:          0
cpu0_DTLB TRANSLATION  ACCESS:          0 HIT:          0 MISS:          0
cpu0_DTLB PREFETCH REQUESTED:          0 ISSUED:          0 USEFUL:          0 USELESS:          0
cpu0_DTLB AVERAGE MISS LATENCY: 8.65 cycles
cpu0_ITLB TOTAL        ACCESS:       1869 HIT:       1869 MISS:          0
cpu0_ITLB LOAD         ACCESS:       1869 HIT:       1869 MISS:          0
cpu0_ITLB RFO          ACCESS:          0 HIT:          0 MISS:          0
cpu0_ITLB PREFETCH     ACCESS:          0 HIT:          0 MISS:          0
cpu0_ITLB WRITE        ACCESS:          0 HIT:          0 MISS:          0
cpu0_ITLB TRANSLATION  ACCESS:          0 HIT:          0 MISS:          0
cpu0_ITLB PREFETCH REQUESTED:          0 ISSUED:          0 USEFUL:          0 USELESS:          0
cpu0_ITLB AVERAGE MISS LATENCY: -nan cycles
cpu0_L1D TOTAL        ACCESS:   10282270 HIT:    7806801 MISS:    2475469
cpu0_L1D LOAD         ACCESS:    6600080 HIT:    5236671 MISS:    1363409
cpu0_L1D RFO          ACCESS:          0 HIT:          0 MISS:          0
cpu0_L1D PREFETCH     ACCESS:    3018590 HIT:    2120660 MISS:     897930
cpu0_L1D WRITE        ACCESS:     657499 HIT:     449204 MISS:     208295
cpu0_L1D TRANSLATION  ACCESS:       6101 HIT:        266 MISS:       5835
cpu0_L1D PREFETCH REQUESTED:    7625196 ISSUED:    3018582 USEFUL:     145992 USELESS:     427338
cpu0_L1D AVERAGE MISS LATENCY: 163.4 cycles
cpu0_L1I TOTAL        ACCESS:       1961 HIT:       1961 MISS:          0
cpu0_L1I LOAD         ACCESS:       1961 HIT:       1961 MISS:          0
cpu0_L1I RFO          ACCESS:          0 HIT:          0 MISS:          0
cpu0_L1I PREFETCH     ACCESS:          0 HIT:          0 MISS:          0
cpu0_L1I WRITE        ACCESS:          0 HIT:          0 MISS:          0
cpu0_L1I TRANSLATION  ACCESS:          0 HIT:          0 MISS:          0
cpu0_L1I PREFETCH REQUESTED:          0 ISSUED:          0 USEFUL:          0 USELESS:          0
cpu0_L1I AVERAGE MISS LATENCY: -nan cycles
cpu0_L2C TOTAL        ACCESS:    2336106 HIT:     662174 MISS:    1673932
cpu0_L2C LOAD         ACCESS:    1032279 HIT:      95310 MISS:     936969
cpu0_L2C RFO          ACCESS:     155494 HIT:     100327 MISS:      55167
cpu0_L2C PREFETCH     ACCESS:     738244 HIT:      62648 MISS:     675596
cpu0_L2C WRITE        ACCESS:     404275 HIT:     402115 MISS:       2160
cpu0_L2C TRANSLATION  ACCESS:       5814 HIT:       1774 MISS:       4040
cpu0_L2C PREFETCH REQUESTED:     164923 ISSUED:     164923 USEFUL:      23102 USELESS:      72233
cpu0_L2C AVERAGE MISS LATENCY: 263 cycles
cpu0_STLB TOTAL        ACCESS:     444565 HIT:     439147 MISS:       5418
cpu0_STLB LOAD         ACCESS:     444565 HIT:     439147 MISS:       5418
cpu0_STLB RFO          ACCESS:          0 HIT:          0 MISS:          0
cpu0_STLB PREFETCH     ACCESS:          0 HIT:          0 MISS:          0
cpu0_STLB WRITE        ACCESS:          0 HIT:          0 MISS:          0
cpu0_STLB TRANSLATION  ACCESS:          0 HIT:          0 MISS:          0
cpu0_STLB PREFETCH REQUESTED:          0 ISSUED:          0 USEFUL:          0 USELESS:          0
cpu0_STLB AVERAGE MISS LATENCY: 455.9 cycles

DRAM Statistics

Channel 0 RQ ROW_BUFFER_HIT:     342722
  ROW_BUFFER_MISS:     530092
 AVG DBUS CONGESTED CYCLE: 3.884
WQ ROW_BUFFER_HIT: Channel 0 
  ROW_BUFFER_MISS:       3727
  FULL:     201582
