WARNING: physical memory size is smaller than virtual memory size.

*** ChampSim Multicore Out-of-Order Simulator ***
Warmup Instructions: 25000000
Simulation Instructions: 25000000
Number of CPUs: 1
Page size: 4096

Off-chip DRAM Size: 4 GiB Channels: 1 Width: 64-bit Data Race: 800 MT/s
Heartbeat CPU 0 instructions: 10000002 cycles: 2501762 heartbeat IPC: 3.997 cumulative IPC: 3.997 (Simulation time: 00 hr 00 min 34 sec)
Heartbeat CPU 0 instructions: 20000000 cycles: 5005121 heartbeat IPC: 3.995 cumulative IPC: 3.996 (Simulation time: 00 hr 01 min 10 sec)
Warmup finished CPU 0 instructions: 25000000 cycles: 6257490 cumulative IPC: 3.995 (Simulation time: 00 hr 01 min 28 sec)
Warmup complete CPU 0 instructions: 25000000 cycles: 6257490 cumulative IPC: 3.995 (Simulation time: 00 hr 01 min 28 sec)
Heartbeat CPU 0 instructions: 30000002 cycles: 23585883 heartbeat IPC: 0.5382 cumulative IPC: 0.2885 (Simulation time: 00 hr 03 min 12 sec)
Heartbeat CPU 0 instructions: 40000002 cycles: 56688615 heartbeat IPC: 0.3021 cumulative IPC: 0.2974 (Simulation time: 00 hr 06 min 41 sec)
Heartbeat CPU 0 instructions: 50000002 cycles: 88578719 heartbeat IPC: 0.3136 cumulative IPC: 0.3037 (Simulation time: 00 hr 09 min 49 sec)
Simulation finished CPU 0 instructions: 25000002 cycles: 82321230 cumulative IPC: 0.3037 (Simulation time: 00 hr 09 min 49 sec)
Simulation complete CPU 0 instructions: 25000002 cycles: 82321230 cumulative IPC: 0.3037 (Simulation time: 00 hr 09 min 49 sec)

ChampSim completed all CPUs

=== Simulation ===
CPU 0 runs ./gap/sssp-5.trace.gz
Region of Interest Statistics

CPU 0 cumulative IPC: 0.3037 instructions: 25000002 cycles: 82321230
CPU 0 Branch Prediction Accuracy: 94.64% MPKI: 7.902 Average ROB Occupancy at Mispredict: 80.87
Branch type MPKI
BRANCH_DIRECT_JUMP: 4e-05
BRANCH_INDIRECT: 0
BRANCH_CONDITIONAL: 7.9
BRANCH_DIRECT_CALL: 0
BRANCH_INDIRECT_CALL: 0
BRANCH_RETURN: 0

LLC TOTAL        ACCESS:    1887773 HIT:    1004610 MISS:     883163
LLC LOAD         ACCESS:     941330 HIT:     510945 MISS:     430385
LLC RFO          ACCESS:      55279 HIT:      29686 MISS:      25593
LLC PREFETCH     ACCESS:     637426 HIT:     215173 MISS:     422253
LLC WRITE        ACCESS:     249216 HIT:     248069 MISS:       1147
LLC TRANSLATION  ACCESS:       4522 HIT:        737 MISS:       3785
LLC PREFETCH REQUESTED:          0 ISSUED:          0 USEFUL:          0 USELESS:          0
LLC AVERAGE MISS LATENCY: 452.2 cycles
cpu0_DTLB TOTAL        ACCESS:    5596482 HIT:    4932573 MISS:     663909
cpu0_DTLB LOAD         ACCESS:    5596482 HIT:    4932573 MISS:     663909
cpu0_DTLB RFO          ACCESS:          0 HIT:          0 MISS:          0
cpu0_DTLB PREFETCH     ACCESS:          0 HIT:          0 MISS:          0
cpu0_DTLB WRITE        ACCESS:          0 HIT:          0 MISS:          0
cpu0_DTLB TRANSLATION  ACCESS:          0 HIT:          0 MISS:          0
cpu0_DTLB PREFETCH REQUESTED:          0 ISSUED:          0 USEFUL:          0 USELESS:          0
cpu0_DTLB AVERAGE MISS LATENCY: 8.6 cycles
cpu0_ITLB TOTAL        ACCESS:       1975 HIT:       1975 MISS:          0
cpu0_ITLB LOAD         ACCESS:       1975 HIT:       1975 MISS:          0
cpu0_ITLB RFO          ACCESS:          0 HIT:          0 MISS:          0
cpu0_ITLB PREFETCH     ACCESS:          0 HIT:          0 MISS:          0
cpu0_ITLB WRITE        ACCESS:          0 HIT:          0 MISS:          0
cpu0_ITLB TRANSLATION  ACCESS:          0 HIT:          0 MISS:          0
cpu0_ITLB PREFETCH REQUESTED:          0 ISSUED:          0 USEFUL:          0 USELESS:          0
cpu0_ITLB AVERAGE MISS LATENCY: -nan cycles
cpu0_L1D TOTAL        ACCESS:   10206040 HIT:    7722340 MISS:    2483700
cpu0_L1D LOAD         ACCESS:    6577547 HIT:    5201075 MISS:    1376472
cpu0_L1D RFO          ACCESS:          0 HIT:          0 MISS:          0
cpu0_L1D PREFETCH     ACCESS:    2977835 HIT:    2080753 MISS:     897082
cpu0_L1D WRITE        ACCESS:     644171 HIT:     440259 MISS:     203912
cpu0_L1D TRANSLATION  ACCESS:       6487 HIT:        253 MISS:       6234
cpu0_L1D PREFETCH REQUESTED:    7510331 ISSUED:    2977838 USEFUL:     141502 USELESS:     445353
cpu0_L1D AVERAGE MISS LATENCY: 160.6 cycles
cpu0_L1I TOTAL        ACCESS:       2082 HIT:       2081 MISS:          1
cpu0_L1I LOAD         ACCESS:       2082 HIT:       2081 MISS:          1
cpu0_L1I RFO          ACCESS:          0 HIT:          0 MISS:          0
cpu0_L1I PREFETCH     ACCESS:          0 HIT:          0 MISS:          0
cpu0_L1I WRITE        ACCESS:          0 HIT:          0 MISS:          0
cpu0_L1I TRANSLATION  ACCESS:          0 HIT:          0 MISS:          0
cpu0_L1I PREFETCH REQUESTED:          0 ISSUED:          0 USEFUL:          0 USELESS:          0
cpu0_L1I AVERAGE MISS LATENCY: 438 cycles
cpu0_L2C TOTAL        ACCESS:    2340990 HIT:     662741 MISS:    1678249
cpu0_L2C LOAD         ACCESS:    1050594 HIT:     101674 MISS:     948920
cpu0_L2C RFO          ACCESS:     153450 HIT:      98171 MISS:      55279
cpu0_L2C PREFETCH     ACCESS:     730183 HIT:      62790 MISS:     667393
cpu0_L2C WRITE        ACCESS:     400546 HIT:     398411 MISS:       2135
cpu0_L2C TRANSLATION  ACCESS:       6217 HIT:       1695 MISS:       4522
cpu0_L2C PREFETCH REQUESTED:     143403 ISSUED:     143403 USEFUL:      19532 USELESS:      60618
cpu0_L2C AVERAGE MISS LATENCY: 255.4 cycles
cpu0_STLB TOTAL        ACCESS:     483444 HIT:     477721 MISS:       5723
cpu0_STLB LOAD         ACCESS:     483444 HIT:     477721 MISS:       5723
cpu0_STLB RFO          ACCESS:          0 HIT:          0 MISS:          0
cpu0_STLB PREFETCH     ACCESS:          0 HIT:          0 MISS:          0
cpu0_STLB WRITE        ACCESS:          0 HIT:          0 MISS:          0
cpu0_STLB TRANSLATION  ACCESS:          0 HIT:          0 MISS:          0
cpu0_STLB PREFETCH REQUESTED:          0 ISSUED:          0 USEFUL:          0 USELESS:          0
cpu0_STLB AVERAGE MISS LATENCY: 465.9 cycles

DRAM Statistics

Channel 0 RQ ROW_BUFFER_HIT:     319586
  ROW_BUFFER_MISS:     530941
 AVG DBUS CONGESTED CYCLE: 3.886
WQ ROW_BUFFER_HIT: Channel 0 
  ROW_BUFFER_MISS:       3793
  FULL:     195817
