WARNING: physical memory size is smaller than virtual memory size.

*** ChampSim Multicore Out-of-Order Simulator ***
Warmup Instructions: 25000000
Simulation Instructions: 25000000
Number of CPUs: 1
Page size: 4096

Off-chip DRAM Size: 4 GiB Channels: 1 Width: 64-bit Data Race: 800 MT/s
Heartbeat CPU 0 instructions: 10000001 cycles: 2500087 heartbeat IPC: 4 cumulative IPC: 4 (Simulation time: 00 hr 00 min 25 sec)
Heartbeat CPU 0 instructions: 20000003 cycles: 5000104 heartbeat IPC: 4 cumulative IPC: 4 (Simulation time: 00 hr 00 min 52 sec)
Warmup finished CPU 0 instructions: 25000003 cycles: 6250105 cumulative IPC: 4 (Simulation time: 00 hr 01 min 04 sec)
Warmup complete CPU 0 instructions: 25000003 cycles: 6250105 cumulative IPC: 4 (Simulation time: 00 hr 01 min 04 sec)
Heartbeat CPU 0 instructions: 30000000 cycles: 11459883 heartbeat IPC: 1.548 cumulative IPC: 0.9597 (Simulation time: 00 hr 01 min 33 sec)
Heartbeat CPU 0 instructions: 40000001 cycles: 21202723 heartbeat IPC: 1.026 cumulative IPC: 1.003 (Simulation time: 00 hr 02 min 28 sec)
Heartbeat CPU 0 instructions: 50000002 cycles: 33452347 heartbeat IPC: 0.8164 cumulative IPC: 0.919 (Simulation time: 00 hr 03 min 56 sec)
Simulation finished CPU 0 instructions: 25000003 cycles: 27202244 cumulative IPC: 0.919 (Simulation time: 00 hr 03 min 56 sec)
Simulation complete CPU 0 instructions: 25000003 cycles: 27202244 cumulative IPC: 0.919 (Simulation time: 00 hr 03 min 56 sec)

ChampSim completed all CPUs

=== Simulation ===
CPU 0 runs ./traces/602.gcc_s-734B.champsimtrace.xz
Region of Interest Statistics

CPU 0 cumulative IPC: 0.919 instructions: 25000003 cycles: 27202244
CPU 0 Branch Prediction Accuracy: 89.42% MPKI: 25.09 Average ROB Occupancy at Mispredict: 17.5
Branch type MPKI
BRANCH_DIRECT_JUMP: 0.0794
BRANCH_INDIRECT: 0
BRANCH_CONDITIONAL: 25
BRANCH_DIRECT_CALL: 0.0548
BRANCH_INDIRECT_CALL: 0
BRANCH_RETURN: 0

LLC TOTAL        ACCESS:     211566 HIT:       1445 MISS:     210121
LLC LOAD         ACCESS:       6020 HIT:        109 MISS:       5911
LLC RFO          ACCESS:          1 HIT:          0 MISS:          1
LLC PREFETCH     ACCESS:     201665 HIT:        208 MISS:     201457
LLC WRITE        ACCESS:       1294 HIT:        791 MISS:        503
LLC TRANSLATION  ACCESS:       2586 HIT:        337 MISS:       2249
LLC PREFETCH REQUESTED:          0 ISSUED:          0 USEFUL:          0 USELESS:          0
LLC AVERAGE MISS LATENCY: 147.9 cycles
cpu0_DTLB TOTAL        ACCESS:    6245156 HIT:    6232574 MISS:      12582
cpu0_DTLB LOAD         ACCESS:    6245156 HIT:    6232574 MISS:      12582
cpu0_DTLB RFO          ACCESS:          0 HIT:          0 MISS:          0
cpu0_DTLB PREFETCH     ACCESS:          0 HIT:          0 MISS:          0
cpu0_DTLB WRITE        ACCESS:          0 HIT:          0 MISS:          0
cpu0_DTLB TRANSLATION  ACCESS:          0 HIT:          0 MISS:          0
cpu0_DTLB PREFETCH REQUESTED:          0 ISSUED:          0 USEFUL:          0 USELESS:          0
cpu0_DTLB AVERAGE MISS LATENCY: 73.83 cycles
cpu0_ITLB TOTAL        ACCESS:          4 HIT:          4 MISS:          0
cpu0_ITLB LOAD         ACCESS:          4 HIT:          4 MISS:          0
cpu0_ITLB RFO          ACCESS:          0 HIT:          0 MISS:          0
cpu0_ITLB PREFETCH     ACCESS:          0 HIT:          0 MISS:          0
cpu0_ITLB WRITE        ACCESS:          0 HIT:          0 MISS:          0
cpu0_ITLB TRANSLATION  ACCESS:          0 HIT:          0 MISS:          0
cpu0_ITLB PREFETCH REQUESTED:          0 ISSUED:          0 USEFUL:          0 USELESS:          0
cpu0_ITLB AVERAGE MISS LATENCY: -nan cycles
cpu0_L1D TOTAL        ACCESS:   13797996 HIT:   11695256 MISS:    2102740
cpu0_L1D LOAD         ACCESS:    5605930 HIT:    5324893 MISS:     281037
cpu0_L1D RFO          ACCESS:          0 HIT:          0 MISS:          0
cpu0_L1D PREFETCH     ACCESS:    5600418 HIT:    3781544 MISS:    1818874
cpu0_L1D WRITE        ACCESS:    2586041 HIT:    2586006 MISS:         35
cpu0_L1D TRANSLATION  ACCESS:       5607 HIT:       2813 MISS:       2794
cpu0_L1D PREFETCH REQUESTED:    5608885 ISSUED:    5600419 USEFUL:     388252 USELESS:      12561
cpu0_L1D AVERAGE MISS LATENCY: 10.73 cycles
cpu0_L1I TOTAL        ACCESS:          4 HIT:          4 MISS:          0
cpu0_L1I LOAD         ACCESS:          4 HIT:          4 MISS:          0
cpu0_L1I RFO          ACCESS:          0 HIT:          0 MISS:          0
cpu0_L1I PREFETCH     ACCESS:          0 HIT:          0 MISS:          0
cpu0_L1I WRITE        ACCESS:          0 HIT:          0 MISS:          0
cpu0_L1I TRANSLATION  ACCESS:          0 HIT:          0 MISS:          0
cpu0_L1I PREFETCH REQUESTED:          0 ISSUED:          0 USEFUL:          0 USELESS:          0
cpu0_L1I AVERAGE MISS LATENCY: -nan cycles
cpu0_L2C TOTAL        ACCESS:     423359 HIT:     212724 MISS:     210635
cpu0_L2C LOAD         ACCESS:      15617 HIT:       9559 MISS:       6058
cpu0_L2C RFO          ACCESS:         10 HIT:          9 MISS:          1
cpu0_L2C PREFETCH     ACCESS:     402056 HIT:     200070 MISS:     201986
cpu0_L2C WRITE        ACCESS:       2883 HIT:       2879 MISS:          4
cpu0_L2C TRANSLATION  ACCESS:       2793 HIT:        207 MISS:       2586
cpu0_L2C PREFETCH REQUESTED:       1235 ISSUED:       1235 USEFUL:        330 USELESS:        421
cpu0_L2C AVERAGE MISS LATENCY: 168.3 cycles
cpu0_STLB TOTAL        ACCESS:       7141 HIT:       1951 MISS:       5190
cpu0_STLB LOAD         ACCESS:       7141 HIT:       1951 MISS:       5190
cpu0_STLB RFO          ACCESS:          0 HIT:          0 MISS:          0
cpu0_STLB PREFETCH     ACCESS:          0 HIT:          0 MISS:          0
cpu0_STLB WRITE        ACCESS:          0 HIT:          0 MISS:          0
cpu0_STLB TRANSLATION  ACCESS:          0 HIT:          0 MISS:          0
cpu0_STLB PREFETCH REQUESTED:          0 ISSUED:          0 USEFUL:          0 USELESS:          0
cpu0_STLB AVERAGE MISS LATENCY: 172.6 cycles

DRAM Statistics

Channel 0 RQ ROW_BUFFER_HIT:     132139
  ROW_BUFFER_MISS:      77432
 AVG DBUS CONGESTED CYCLE: 3.604
WQ ROW_BUFFER_HIT: Channel 0 
  ROW_BUFFER_MISS:        994
  FULL:       1030
