WARNING: physical memory size is smaller than virtual memory size.

*** ChampSim Multicore Out-of-Order Simulator ***
Warmup Instructions: 25000000
Simulation Instructions: 25000000
Number of CPUs: 1
Page size: 4096

Off-chip DRAM Size: 4 GiB Channels: 1 Width: 64-bit Data Race: 800 MT/s
Heartbeat CPU 0 instructions: 10000002 cycles: 2500136 heartbeat IPC: 4 cumulative IPC: 4 (Simulation time: 00 hr 00 min 28 sec)
Heartbeat CPU 0 instructions: 20000003 cycles: 5000151 heartbeat IPC: 4 cumulative IPC: 4 (Simulation time: 00 hr 00 min 56 sec)
Warmup finished CPU 0 instructions: 25000003 cycles: 6250152 cumulative IPC: 4 (Simulation time: 00 hr 01 min 10 sec)
Warmup complete CPU 0 instructions: 25000003 cycles: 6250152 cumulative IPC: 4 (Simulation time: 00 hr 01 min 10 sec)
Heartbeat CPU 0 instructions: 30000000 cycles: 14058707 heartbeat IPC: 1.104 cumulative IPC: 0.6403 (Simulation time: 00 hr 02 min 05 sec)
Heartbeat CPU 0 instructions: 40000001 cycles: 29705167 heartbeat IPC: 0.6391 cumulative IPC: 0.6395 (Simulation time: 00 hr 04 min 24 sec)
Heartbeat CPU 0 instructions: 50000003 cycles: 45263440 heartbeat IPC: 0.6427 cumulative IPC: 0.6408 (Simulation time: 00 hr 06 min 19 sec)
Simulation finished CPU 0 instructions: 25000000 cycles: 39013289 cumulative IPC: 0.6408 (Simulation time: 00 hr 06 min 19 sec)
Simulation complete CPU 0 instructions: 25000000 cycles: 39013289 cumulative IPC: 0.6408 (Simulation time: 00 hr 06 min 19 sec)

ChampSim completed all CPUs

=== Simulation ===
CPU 0 runs ./traces/603.bwaves_s-2609B.champsimtrace.xz
Region of Interest Statistics

CPU 0 cumulative IPC: 0.6408 instructions: 25000000 cycles: 39013289
CPU 0 Branch Prediction Accuracy: 81.23% MPKI: 4.685 Average ROB Occupancy at Mispredict: 300.6
Branch type MPKI
BRANCH_DIRECT_JUMP: 0
BRANCH_INDIRECT: 0
BRANCH_CONDITIONAL: 4.68
BRANCH_DIRECT_CALL: 0
BRANCH_INDIRECT_CALL: 0
BRANCH_RETURN: 0

LLC TOTAL        ACCESS:     503668 HIT:      24786 MISS:     478882
LLC LOAD         ACCESS:     236438 HIT:      10720 MISS:     225718
LLC RFO          ACCESS:      12181 HIT:          0 MISS:      12181
LLC PREFETCH     ACCESS:     242655 HIT:       1715 MISS:     240940
LLC WRITE        ACCESS:      12256 HIT:      12248 MISS:          8
LLC TRANSLATION  ACCESS:        138 HIT:        103 MISS:         35
LLC PREFETCH REQUESTED:          0 ISSUED:          0 USEFUL:          0 USELESS:          0
LLC AVERAGE MISS LATENCY: 1025 cycles
cpu0_DTLB TOTAL        ACCESS:    6671804 HIT:    6648091 MISS:      23713
cpu0_DTLB LOAD         ACCESS:    6671804 HIT:    6648091 MISS:      23713
cpu0_DTLB RFO          ACCESS:          0 HIT:          0 MISS:          0
cpu0_DTLB PREFETCH     ACCESS:          0 HIT:          0 MISS:          0
cpu0_DTLB WRITE        ACCESS:          0 HIT:          0 MISS:          0
cpu0_DTLB TRANSLATION  ACCESS:          0 HIT:          0 MISS:          0
cpu0_DTLB PREFETCH REQUESTED:          0 ISSUED:          0 USEFUL:          0 USELESS:          0
cpu0_DTLB AVERAGE MISS LATENCY: 56.95 cycles
cpu0_ITLB TOTAL        ACCESS:          0 HIT:          0 MISS:          0
cpu0_ITLB LOAD         ACCESS:          0 HIT:          0 MISS:          0
cpu0_ITLB RFO          ACCESS:          0 HIT:          0 MISS:          0
cpu0_ITLB PREFETCH     ACCESS:          0 HIT:          0 MISS:          0
cpu0_ITLB WRITE        ACCESS:          0 HIT:          0 MISS:          0
cpu0_ITLB TRANSLATION  ACCESS:          0 HIT:          0 MISS:          0
cpu0_ITLB PREFETCH REQUESTED:          0 ISSUED:          0 USEFUL:          0 USELESS:          0
cpu0_ITLB AVERAGE MISS LATENCY: -nan cycles
cpu0_L1D TOTAL        ACCESS:    9593332 HIT:    8366980 MISS:    1226352
cpu0_L1D LOAD         ACCESS:    6388644 HIT:    5633353 MISS:     755291
cpu0_L1D RFO          ACCESS:          0 HIT:          0 MISS:          0
cpu0_L1D PREFETCH     ACCESS:    1788893 HIT:    1388363 MISS:     400530
cpu0_L1D WRITE        ACCESS:    1408364 HIT:    1345007 MISS:      63357
cpu0_L1D TRANSLATION  ACCESS:       7431 HIT:        257 MISS:       7174
cpu0_L1D PREFETCH REQUESTED:    9433664 ISSUED:    1788900 USEFUL:     191762 USELESS:       5959
cpu0_L1D AVERAGE MISS LATENCY: 226 cycles
cpu0_L1I TOTAL        ACCESS:          0 HIT:          0 MISS:          0
cpu0_L1I LOAD         ACCESS:          0 HIT:          0 MISS:          0
cpu0_L1I RFO          ACCESS:          0 HIT:          0 MISS:          0
cpu0_L1I PREFETCH     ACCESS:          0 HIT:          0 MISS:          0
cpu0_L1I WRITE        ACCESS:          0 HIT:          0 MISS:          0
cpu0_L1I TRANSLATION  ACCESS:          0 HIT:          0 MISS:          0
cpu0_L1I PREFETCH REQUESTED:          0 ISSUED:          0 USEFUL:          0 USELESS:          0
cpu0_L1I AVERAGE MISS LATENCY: -nan cycles
cpu0_L2C TOTAL        ACCESS:     694211 HIT:     111570 MISS:     582641
cpu0_L2C LOAD         ACCESS:     311754 HIT:      47054 MISS:     264700
cpu0_L2C RFO          ACCESS:      14872 HIT:       2690 MISS:      12182
cpu0_L2C PREFETCH     ACCESS:     344107 HIT:      38571 MISS:     305536
cpu0_L2C WRITE        ACCESS:      16304 HIT:      16219 MISS:         85
cpu0_L2C TRANSLATION  ACCESS:       7174 HIT:       7036 MISS:        138
cpu0_L2C PREFETCH REQUESTED:     146375 ISSUED:     146375 USEFUL:      61907 USELESS:      11248
cpu0_L2C AVERAGE MISS LATENCY: 811.7 cycles
cpu0_STLB TOTAL        ACCESS:      13741 HIT:       6324 MISS:       7417
cpu0_STLB LOAD         ACCESS:      13741 HIT:       6324 MISS:       7417
cpu0_STLB RFO          ACCESS:          0 HIT:          0 MISS:          0
cpu0_STLB PREFETCH     ACCESS:          0 HIT:          0 MISS:          0
cpu0_STLB WRITE        ACCESS:          0 HIT:          0 MISS:          0
cpu0_STLB TRANSLATION  ACCESS:          0 HIT:          0 MISS:          0
cpu0_STLB PREFETCH REQUESTED:          0 ISSUED:          0 USEFUL:          0 USELESS:          0
cpu0_STLB AVERAGE MISS LATENCY: 219.2 cycles

DRAM Statistics

Channel 0 RQ ROW_BUFFER_HIT:     339898
  ROW_BUFFER_MISS:     135496
 AVG DBUS CONGESTED CYCLE: 3.76
WQ ROW_BUFFER_HIT: Channel 0 
  ROW_BUFFER_MISS:       1187
  FULL:      11153
