WARNING: physical memory size is smaller than virtual memory size.

*** ChampSim Multicore Out-of-Order Simulator ***
Warmup Instructions: 25000000
Simulation Instructions: 25000000
Number of CPUs: 1
Page size: 4096

Off-chip DRAM Size: 4 GiB Channels: 1 Width: 64-bit Data Race: 800 MT/s
Heartbeat CPU 0 instructions: 10000003 cycles: 2500092 heartbeat IPC: 4 cumulative IPC: 4 (Simulation time: 00 hr 00 min 26 sec)
Heartbeat CPU 0 instructions: 20000003 cycles: 5000092 heartbeat IPC: 4 cumulative IPC: 4 (Simulation time: 00 hr 00 min 54 sec)
Warmup finished CPU 0 instructions: 25000003 cycles: 6250093 cumulative IPC: 4 (Simulation time: 00 hr 01 min 08 sec)
Warmup complete CPU 0 instructions: 25000003 cycles: 6250093 cumulative IPC: 4 (Simulation time: 00 hr 01 min 08 sec)
Heartbeat CPU 0 instructions: 30000003 cycles: 28614664 heartbeat IPC: 0.4235 cumulative IPC: 0.2236 (Simulation time: 00 hr 03 min 58 sec)
Heartbeat CPU 0 instructions: 40000000 cycles: 73806180 heartbeat IPC: 0.2213 cumulative IPC: 0.222 (Simulation time: 00 hr 08 min 50 sec)
Heartbeat CPU 0 instructions: 50000001 cycles: 93509334 heartbeat IPC: 0.5075 cumulative IPC: 0.2865 (Simulation time: 00 hr 10 min 38 sec)
Simulation finished CPU 0 instructions: 25000002 cycles: 87259243 cumulative IPC: 0.2865 (Simulation time: 00 hr 10 min 38 sec)
Simulation complete CPU 0 instructions: 25000002 cycles: 87259243 cumulative IPC: 0.2865 (Simulation time: 00 hr 10 min 38 sec)

ChampSim completed all CPUs

=== Simulation ===
CPU 0 runs ./traces/603.bwaves_s-891B.champsimtrace.xz
Region of Interest Statistics

CPU 0 cumulative IPC: 0.2865 instructions: 25000002 cycles: 87259243
CPU 0 Branch Prediction Accuracy: 78.12% MPKI: 22.74 Average ROB Occupancy at Mispredict: 295.9
Branch type MPKI
BRANCH_DIRECT_JUMP: 0
BRANCH_INDIRECT: 0
BRANCH_CONDITIONAL: 22.7
BRANCH_DIRECT_CALL: 0
BRANCH_INDIRECT_CALL: 0
BRANCH_RETURN: 0

LLC TOTAL        ACCESS:     843251 HIT:     246296 MISS:     596955
LLC LOAD         ACCESS:      10146 HIT:        244 MISS:       9902
LLC RFO          ACCESS:          1 HIT:          0 MISS:          1
LLC PREFETCH     ACCESS:     587139 HIT:        189 MISS:     586950
LLC WRITE        ACCESS:     245840 HIT:     245779 MISS:         61
LLC TRANSLATION  ACCESS:        125 HIT:         84 MISS:         41
LLC PREFETCH REQUESTED:          0 ISSUED:          0 USEFUL:          0 USELESS:          0
LLC AVERAGE MISS LATENCY: 1700 cycles
cpu0_DTLB TOTAL        ACCESS:    5071041 HIT:    5018977 MISS:      52064
cpu0_DTLB LOAD         ACCESS:    5071041 HIT:    5018977 MISS:      52064
cpu0_DTLB RFO          ACCESS:          0 HIT:          0 MISS:          0
cpu0_DTLB PREFETCH     ACCESS:          0 HIT:          0 MISS:          0
cpu0_DTLB WRITE        ACCESS:          0 HIT:          0 MISS:          0
cpu0_DTLB TRANSLATION  ACCESS:          0 HIT:          0 MISS:          0
cpu0_DTLB PREFETCH REQUESTED:          0 ISSUED:          0 USEFUL:          0 USELESS:          0
cpu0_DTLB AVERAGE MISS LATENCY: 31.44 cycles
cpu0_ITLB TOTAL        ACCESS:          7 HIT:          7 MISS:          0
cpu0_ITLB LOAD         ACCESS:          7 HIT:          7 MISS:          0
cpu0_ITLB RFO          ACCESS:          0 HIT:          0 MISS:          0
cpu0_ITLB PREFETCH     ACCESS:          0 HIT:          0 MISS:          0
cpu0_ITLB WRITE        ACCESS:          0 HIT:          0 MISS:          0
cpu0_ITLB TRANSLATION  ACCESS:          0 HIT:          0 MISS:          0
cpu0_ITLB PREFETCH REQUESTED:          0 ISSUED:          0 USEFUL:          0 USELESS:          0
cpu0_ITLB AVERAGE MISS LATENCY: -nan cycles
cpu0_L1D TOTAL        ACCESS:    9232283 HIT:    3341943 MISS:    5890340
cpu0_L1D LOAD         ACCESS:    3946794 HIT:    1104343 MISS:    2842451
cpu0_L1D RFO          ACCESS:          0 HIT:          0 MISS:          0
cpu0_L1D PREFETCH     ACCESS:    3926767 HIT:     879408 MISS:    3047359
cpu0_L1D WRITE        ACCESS:    1349379 HIT:    1349036 MISS:        343
cpu0_L1D TRANSLATION  ACCESS:       9343 HIT:       9156 MISS:        187
cpu0_L1D PREFETCH REQUESTED:    3959122 ISSUED:    3926764 USEFUL:     582074 USELESS:        238
cpu0_L1D AVERAGE MISS LATENCY: 110.6 cycles
cpu0_L1I TOTAL        ACCESS:          9 HIT:          3 MISS:          6
cpu0_L1I LOAD         ACCESS:          9 HIT:          3 MISS:          6
cpu0_L1I RFO          ACCESS:          0 HIT:          0 MISS:          0
cpu0_L1I PREFETCH     ACCESS:          0 HIT:          0 MISS:          0
cpu0_L1I WRITE        ACCESS:          0 HIT:          0 MISS:          0
cpu0_L1I TRANSLATION  ACCESS:          0 HIT:          0 MISS:          0
cpu0_L1I PREFETCH REQUESTED:          0 ISSUED:          0 USEFUL:          0 USELESS:          0
cpu0_L1I AVERAGE MISS LATENCY: 883.5 cycles
cpu0_L2C TOTAL        ACCESS:    1139137 HIT:     244955 MISS:     894182
cpu0_L2C LOAD         ACCESS:      15157 HIT:        239 MISS:      14918
cpu0_L2C RFO          ACCESS:        215 HIT:        214 MISS:          1
cpu0_L2C PREFETCH     ACCESS:     879314 HIT:        349 MISS:     878965
cpu0_L2C WRITE        ACCESS:     244264 HIT:     244091 MISS:        173
cpu0_L2C TRANSLATION  ACCESS:        187 HIT:         62 MISS:        125
cpu0_L2C PREFETCH REQUESTED:     297003 ISSUED:     297003 USEFUL:       6021 USELESS:      96362
cpu0_L2C AVERAGE MISS LATENCY: 1147 cycles
cpu0_STLB TOTAL        ACCESS:       9351 HIT:         26 MISS:       9325
cpu0_STLB LOAD         ACCESS:       9351 HIT:         26 MISS:       9325
cpu0_STLB RFO          ACCESS:          0 HIT:          0 MISS:          0
cpu0_STLB PREFETCH     ACCESS:          0 HIT:          0 MISS:          0
cpu0_STLB WRITE        ACCESS:          0 HIT:          0 MISS:          0
cpu0_STLB TRANSLATION  ACCESS:          0 HIT:          0 MISS:          0
cpu0_STLB PREFETCH REQUESTED:          0 ISSUED:          0 USEFUL:          0 USELESS:          0
cpu0_STLB AVERAGE MISS LATENCY: 211.5 cycles

DRAM Statistics

Channel 0 RQ ROW_BUFFER_HIT:     420202
  ROW_BUFFER_MISS:     176685
 AVG DBUS CONGESTED CYCLE: 3.981
WQ ROW_BUFFER_HIT: Channel 0 
  ROW_BUFFER_MISS:      23223
  FULL:     244615
