WARNING: physical memory size is smaller than virtual memory size.

*** ChampSim Multicore Out-of-Order Simulator ***
Warmup Instructions: 25000000
Simulation Instructions: 25000000
Number of CPUs: 1
Page size: 4096

Off-chip DRAM Size: 4 GiB Channels: 1 Width: 64-bit Data Race: 800 MT/s
Heartbeat CPU 0 instructions: 10000000 cycles: 3499429 heartbeat IPC: 2.858 cumulative IPC: 2.858 (Simulation time: 00 hr 00 min 46 sec)
Heartbeat CPU 0 instructions: 20000002 cycles: 6997646 heartbeat IPC: 2.859 cumulative IPC: 2.858 (Simulation time: 00 hr 01 min 32 sec)
Warmup finished CPU 0 instructions: 25000000 cycles: 8748843 cumulative IPC: 2.858 (Simulation time: 00 hr 01 min 54 sec)
Warmup complete CPU 0 instructions: 25000000 cycles: 8748843 cumulative IPC: 2.858 (Simulation time: 00 hr 01 min 54 sec)
Heartbeat CPU 0 instructions: 30000003 cycles: 79539120 heartbeat IPC: 0.1379 cumulative IPC: 0.07063 (Simulation time: 00 hr 07 min 57 sec)
Heartbeat CPU 0 instructions: 40000000 cycles: 223284585 heartbeat IPC: 0.06957 cumulative IPC: 0.06992 (Simulation time: 00 hr 14 min 52 sec)
Heartbeat CPU 0 instructions: 50000000 cycles: 367631426 heartbeat IPC: 0.06928 cumulative IPC: 0.06966 (Simulation time: 00 hr 20 min 23 sec)
Simulation finished CPU 0 instructions: 25000000 cycles: 358882584 cumulative IPC: 0.06966 (Simulation time: 00 hr 20 min 23 sec)
Simulation complete CPU 0 instructions: 25000000 cycles: 358882584 cumulative IPC: 0.06966 (Simulation time: 00 hr 20 min 23 sec)

ChampSim completed all CPUs

=== Simulation ===
CPU 0 runs ./traces/605.mcf_s-1644B.champsimtrace.xz
Region of Interest Statistics

CPU 0 cumulative IPC: 0.06966 instructions: 25000000 cycles: 358882584
CPU 0 Branch Prediction Accuracy: 93.34% MPKI: 8.275 Average ROB Occupancy at Mispredict: 85.57
Branch type MPKI
BRANCH_DIRECT_JUMP: 0
BRANCH_INDIRECT: 0
BRANCH_CONDITIONAL: 8.27
BRANCH_DIRECT_CALL: 0
BRANCH_INDIRECT_CALL: 0
BRANCH_RETURN: 0

LLC TOTAL        ACCESS:    5487208 HIT:    2804327 MISS:    2682881
LLC LOAD         ACCESS:     754668 HIT:     371504 MISS:     383164
LLC RFO          ACCESS:    1093085 HIT:        643 MISS:    1092442
LLC PREFETCH     ACCESS:     813296 HIT:     244619 MISS:     568677
LLC WRITE        ACCESS:    2215445 HIT:    2156842 MISS:      58603
LLC TRANSLATION  ACCESS:     610714 HIT:      30719 MISS:     579995
LLC PREFETCH REQUESTED:          0 ISSUED:          0 USEFUL:          0 USELESS:          0
LLC AVERAGE MISS LATENCY: 1012 cycles
cpu0_DTLB TOTAL        ACCESS:    8393951 HIT:    5218789 MISS:    3175162
cpu0_DTLB LOAD         ACCESS:    8393951 HIT:    5218789 MISS:    3175162
cpu0_DTLB RFO          ACCESS:          0 HIT:          0 MISS:          0
cpu0_DTLB PREFETCH     ACCESS:          0 HIT:          0 MISS:          0
cpu0_DTLB WRITE        ACCESS:          0 HIT:          0 MISS:          0
cpu0_DTLB TRANSLATION  ACCESS:          0 HIT:          0 MISS:          0
cpu0_DTLB PREFETCH REQUESTED:          0 ISSUED:          0 USEFUL:          0 USELESS:          0
cpu0_DTLB AVERAGE MISS LATENCY: 203.6 cycles
cpu0_ITLB TOTAL        ACCESS:          0 HIT:          0 MISS:          0
cpu0_ITLB LOAD         ACCESS:          0 HIT:          0 MISS:          0
cpu0_ITLB RFO          ACCESS:          0 HIT:          0 MISS:          0
cpu0_ITLB PREFETCH     ACCESS:          0 HIT:          0 MISS:          0
cpu0_ITLB WRITE        ACCESS:          0 HIT:          0 MISS:          0
cpu0_ITLB TRANSLATION  ACCESS:          0 HIT:          0 MISS:          0
cpu0_ITLB PREFETCH REQUESTED:          0 ISSUED:          0 USEFUL:          0 USELESS:          0
cpu0_ITLB AVERAGE MISS LATENCY: -nan cycles
cpu0_L1D TOTAL        ACCESS:   15231880 HIT:    6443981 MISS:    8787899
cpu0_L1D LOAD         ACCESS:    3093292 HIT:    1673210 MISS:    1420082
cpu0_L1D RFO          ACCESS:          0 HIT:          0 MISS:          0
cpu0_L1D PREFETCH     ACCESS:    2761630 HIT:    1100483 MISS:    1661147
cpu0_L1D WRITE        ACCESS:    8510018 HIT:    3589777 MISS:    4920241
cpu0_L1D TRANSLATION  ACCESS:     866940 HIT:      80511 MISS:     786429
cpu0_L1D PREFETCH REQUESTED:    3642852 ISSUED:    2761623 USEFUL:     305145 USELESS:     482533
cpu0_L1D AVERAGE MISS LATENCY: 290.3 cycles
cpu0_L1I TOTAL        ACCESS:          0 HIT:          0 MISS:          0
cpu0_L1I LOAD         ACCESS:          0 HIT:          0 MISS:          0
cpu0_L1I RFO          ACCESS:          0 HIT:          0 MISS:          0
cpu0_L1I PREFETCH     ACCESS:          0 HIT:          0 MISS:          0
cpu0_L1I WRITE        ACCESS:          0 HIT:          0 MISS:          0
cpu0_L1I TRANSLATION  ACCESS:          0 HIT:          0 MISS:          0
cpu0_L1I PREFETCH REQUESTED:          0 ISSUED:          0 USEFUL:          0 USELESS:          0
cpu0_L1I AVERAGE MISS LATENCY: -nan cycles
cpu0_L2C TOTAL        ACCESS:    6017147 HIT:    2633372 MISS:    3383775
cpu0_L2C LOAD         ACCESS:     864230 HIT:      94699 MISS:     769531
cpu0_L2C RFO          ACCESS:    1094713 HIT:       1628 MISS:    1093085
cpu0_L2C PREFETCH     ACCESS:    1010783 HIT:     102161 MISS:     908622
cpu0_L2C WRITE        ACCESS:    2263997 HIT:    2262174 MISS:       1823
cpu0_L2C TRANSLATION  ACCESS:     783424 HIT:     172710 MISS:     610714
cpu0_L2C PREFETCH REQUESTED:     223036 ISSUED:     223036 USEFUL:     132005 USELESS:      10005
cpu0_L2C AVERAGE MISS LATENCY: 817.7 cycles
cpu0_STLB TOTAL        ACCESS:     727424 HIT:     130373 MISS:     597051
cpu0_STLB LOAD         ACCESS:     727424 HIT:     130373 MISS:     597051
cpu0_STLB RFO          ACCESS:          0 HIT:          0 MISS:          0
cpu0_STLB PREFETCH     ACCESS:          0 HIT:          0 MISS:          0
cpu0_STLB WRITE        ACCESS:          0 HIT:          0 MISS:          0
cpu0_STLB TRANSLATION  ACCESS:          0 HIT:          0 MISS:          0
cpu0_STLB PREFETCH REQUESTED:          0 ISSUED:          0 USEFUL:          0 USELESS:          0
cpu0_STLB AVERAGE MISS LATENCY: 1136 cycles

DRAM Statistics

Channel 0 RQ ROW_BUFFER_HIT:     106854
  ROW_BUFFER_MISS:    2515366
 AVG DBUS CONGESTED CYCLE: 3.986
WQ ROW_BUFFER_HIT: Channel 0 
  ROW_BUFFER_MISS:       3136
  FULL:    1838991
