WARNING: physical memory size is smaller than virtual memory size.

*** ChampSim Multicore Out-of-Order Simulator ***
Warmup Instructions: 25000000
Simulation Instructions: 25000000
Number of CPUs: 1
Page size: 4096

Off-chip DRAM Size: 4 GiB Channels: 1 Width: 64-bit Data Race: 800 MT/s
Heartbeat CPU 0 instructions: 10000000 cycles: 2569687 heartbeat IPC: 3.892 cumulative IPC: 3.892 (Simulation time: 00 hr 00 min 29 sec)
Heartbeat CPU 0 instructions: 20000000 cycles: 5139074 heartbeat IPC: 3.892 cumulative IPC: 3.892 (Simulation time: 00 hr 00 min 58 sec)
Warmup finished CPU 0 instructions: 25000002 cycles: 6421454 cumulative IPC: 3.893 (Simulation time: 00 hr 01 min 12 sec)
Warmup complete CPU 0 instructions: 25000002 cycles: 6421454 cumulative IPC: 3.893 (Simulation time: 00 hr 01 min 12 sec)
Heartbeat CPU 0 instructions: 30000003 cycles: 19373003 heartbeat IPC: 0.7025 cumulative IPC: 0.3861 (Simulation time: 00 hr 02 min 13 sec)
Heartbeat CPU 0 instructions: 40000001 cycles: 45615027 heartbeat IPC: 0.3811 cumulative IPC: 0.3827 (Simulation time: 00 hr 04 min 45 sec)
Heartbeat CPU 0 instructions: 50000003 cycles: 72310924 heartbeat IPC: 0.3746 cumulative IPC: 0.3794 (Simulation time: 00 hr 06 min 54 sec)
Simulation finished CPU 0 instructions: 25000001 cycles: 65889471 cumulative IPC: 0.3794 (Simulation time: 00 hr 06 min 54 sec)
Simulation complete CPU 0 instructions: 25000001 cycles: 65889471 cumulative IPC: 0.3794 (Simulation time: 00 hr 06 min 54 sec)

ChampSim completed all CPUs

=== Simulation ===
CPU 0 runs ./traces/605.mcf_s-1152B.champsimtrace.xz
Region of Interest Statistics

CPU 0 cumulative IPC: 0.3794 instructions: 25000001 cycles: 65889471
CPU 0 Branch Prediction Accuracy: 85.61% MPKI: 35.89 Average ROB Occupancy at Mispredict: 11.22
Branch type MPKI
BRANCH_DIRECT_JUMP: 0.211
BRANCH_INDIRECT: 0
BRANCH_CONDITIONAL: 35.7
BRANCH_DIRECT_CALL: 0
BRANCH_INDIRECT_CALL: 0.00464
BRANCH_RETURN: 0

LLC TOTAL        ACCESS:    1863476 HIT:    1293094 MISS:     570382
LLC LOAD         ACCESS:     768298 HIT:     580474 MISS:     187824
LLC RFO          ACCESS:      75383 HIT:      75113 MISS:        270
LLC PREFETCH     ACCESS:     910519 HIT:     529730 MISS:     380789
LLC WRITE        ACCESS:     106349 HIT:     106348 MISS:          1
LLC TRANSLATION  ACCESS:       2927 HIT:       1429 MISS:       1498
LLC PREFETCH REQUESTED:          0 ISSUED:          0 USEFUL:          0 USELESS:          0
LLC AVERAGE MISS LATENCY: 284.3 cycles
cpu0_DTLB TOTAL        ACCESS:    7657616 HIT:    6904305 MISS:     753311
cpu0_DTLB LOAD         ACCESS:    7657616 HIT:    6904305 MISS:     753311
cpu0_DTLB RFO          ACCESS:          0 HIT:          0 MISS:          0
cpu0_DTLB PREFETCH     ACCESS:          0 HIT:          0 MISS:          0
cpu0_DTLB WRITE        ACCESS:          0 HIT:          0 MISS:          0
cpu0_DTLB TRANSLATION  ACCESS:          0 HIT:          0 MISS:          0
cpu0_DTLB PREFETCH REQUESTED:          0 ISSUED:          0 USEFUL:          0 USELESS:          0
cpu0_DTLB AVERAGE MISS LATENCY: 8.755 cycles
cpu0_ITLB TOTAL        ACCESS:      14175 HIT:      14175 MISS:          0
cpu0_ITLB LOAD         ACCESS:      14175 HIT:      14175 MISS:          0
cpu0_ITLB RFO          ACCESS:          0 HIT:          0 MISS:          0
cpu0_ITLB PREFETCH     ACCESS:          0 HIT:          0 MISS:          0
cpu0_ITLB WRITE        ACCESS:          0 HIT:          0 MISS:          0
cpu0_ITLB TRANSLATION  ACCESS:          0 HIT:          0 MISS:          0
cpu0_ITLB PREFETCH REQUESTED:          0 ISSUED:          0 USEFUL:          0 USELESS:          0
cpu0_ITLB AVERAGE MISS LATENCY: -nan cycles
cpu0_L1D TOTAL        ACCESS:   15857305 HIT:   12331047 MISS:    3526258
cpu0_L1D LOAD         ACCESS:    7122228 HIT:    5558627 MISS:    1563601
cpu0_L1D RFO          ACCESS:          0 HIT:          0 MISS:          0
cpu0_L1D PREFETCH     ACCESS:    6134403 HIT:    4460215 MISS:    1674188
cpu0_L1D WRITE        ACCESS:    2592481 HIT:    2308269 MISS:     284212
cpu0_L1D TRANSLATION  ACCESS:       8193 HIT:       3936 MISS:       4257
cpu0_L1D PREFETCH REQUESTED:    7792250 ISSUED:    6134403 USEFUL:     276844 USELESS:     756340
cpu0_L1D AVERAGE MISS LATENCY: 52.09 cycles
cpu0_L1I TOTAL        ACCESS:      16035 HIT:      16035 MISS:          0
cpu0_L1I LOAD         ACCESS:      16035 HIT:      16035 MISS:          0
cpu0_L1I RFO          ACCESS:          0 HIT:          0 MISS:          0
cpu0_L1I PREFETCH     ACCESS:          0 HIT:          0 MISS:          0
cpu0_L1I WRITE        ACCESS:          0 HIT:          0 MISS:          0
cpu0_L1I TRANSLATION  ACCESS:          0 HIT:          0 MISS:          0
cpu0_L1I PREFETCH REQUESTED:          0 ISSUED:          0 USEFUL:          0 USELESS:          0
cpu0_L1I AVERAGE MISS LATENCY: -nan cycles
cpu0_L2C TOTAL        ACCESS:    2472256 HIT:     657559 MISS:    1814697
cpu0_L2C LOAD         ACCESS:    1054381 HIT:     276571 MISS:     777810
cpu0_L2C RFO          ACCESS:      97559 HIT:      22176 MISS:      75383
cpu0_L2C PREFETCH     ACCESS:    1172329 HIT:     213998 MISS:     958331
cpu0_L2C WRITE        ACCESS:     143730 HIT:     143484 MISS:        246
cpu0_L2C TRANSLATION  ACCESS:       4257 HIT:       1330 MISS:       2927
cpu0_L2C PREFETCH REQUESTED:     139073 ISSUED:     139073 USEFUL:      46281 USELESS:       7178
cpu0_L2C AVERAGE MISS LATENCY: 106.3 cycles
cpu0_STLB TOTAL        ACCESS:     639441 HIT:     631312 MISS:       8129
cpu0_STLB LOAD         ACCESS:     639441 HIT:     631312 MISS:       8129
cpu0_STLB RFO          ACCESS:          0 HIT:          0 MISS:          0
cpu0_STLB PREFETCH     ACCESS:          0 HIT:          0 MISS:          0
cpu0_STLB WRITE        ACCESS:          0 HIT:          0 MISS:          0
cpu0_STLB TRANSLATION  ACCESS:          0 HIT:          0 MISS:          0
cpu0_STLB PREFETCH REQUESTED:          0 ISSUED:          0 USEFUL:          0 USELESS:          0
cpu0_STLB AVERAGE MISS LATENCY: 220.3 cycles

DRAM Statistics

Channel 0 RQ ROW_BUFFER_HIT:     201144
  ROW_BUFFER_MISS:     360923
 AVG DBUS CONGESTED CYCLE: 3.831
WQ ROW_BUFFER_HIT: Channel 0 
  ROW_BUFFER_MISS:       1715
  FULL:        598
