WARNING: physical memory size is smaller than virtual memory size.

*** ChampSim Multicore Out-of-Order Simulator ***
Warmup Instructions: 25000000
Simulation Instructions: 25000000
Number of CPUs: 1
Page size: 4096

Off-chip DRAM Size: 4 GiB Channels: 1 Width: 64-bit Data Race: 800 MT/s
Heartbeat CPU 0 instructions: 10000003 cycles: 2591257 heartbeat IPC: 3.859 cumulative IPC: 3.859 (Simulation time: 00 hr 00 min 33 sec)
Heartbeat CPU 0 instructions: 20000003 cycles: 5188443 heartbeat IPC: 3.85 cumulative IPC: 3.855 (Simulation time: 00 hr 01 min 08 sec)
Warmup finished CPU 0 instructions: 25000000 cycles: 6487118 cumulative IPC: 3.854 (Simulation time: 00 hr 01 min 24 sec)
Warmup complete CPU 0 instructions: 25000000 cycles: 6487118 cumulative IPC: 3.854 (Simulation time: 00 hr 01 min 24 sec)
Heartbeat CPU 0 instructions: 30000000 cycles: 18261300 heartbeat IPC: 0.7649 cumulative IPC: 0.4247 (Simulation time: 00 hr 02 min 23 sec)
Heartbeat CPU 0 instructions: 40000001 cycles: 41519440 heartbeat IPC: 0.43 cumulative IPC: 0.4282 (Simulation time: 00 hr 04 min 04 sec)
Heartbeat CPU 0 instructions: 50000001 cycles: 63907563 heartbeat IPC: 0.4467 cumulative IPC: 0.4354 (Simulation time: 00 hr 05 min 35 sec)
Simulation finished CPU 0 instructions: 25000001 cycles: 57420446 cumulative IPC: 0.4354 (Simulation time: 00 hr 05 min 35 sec)
Simulation complete CPU 0 instructions: 25000001 cycles: 57420446 cumulative IPC: 0.4354 (Simulation time: 00 hr 05 min 35 sec)

ChampSim completed all CPUs

=== Simulation ===
CPU 0 runs ./traces/605.mcf_s-665B.champsimtrace.xz
Region of Interest Statistics

CPU 0 cumulative IPC: 0.4354 instructions: 25000001 cycles: 57420446
CPU 0 Branch Prediction Accuracy: 85.71% MPKI: 35.61 Average ROB Occupancy at Mispredict: 11.81
Branch type MPKI
BRANCH_DIRECT_JUMP: 0.211
BRANCH_INDIRECT: 0
BRANCH_CONDITIONAL: 35.4
BRANCH_DIRECT_CALL: 0
BRANCH_INDIRECT_CALL: 0.00512
BRANCH_RETURN: 0

LLC TOTAL        ACCESS:    1304477 HIT:     879138 MISS:     425339
LLC LOAD         ACCESS:     501738 HIT:     354788 MISS:     146950
LLC RFO          ACCESS:      80169 HIT:      79917 MISS:        252
LLC PREFETCH     ACCESS:     613835 HIT:     337099 MISS:     276736
LLC WRITE        ACCESS:     105525 HIT:     105524 MISS:          1
LLC TRANSLATION  ACCESS:       3210 HIT:       1810 MISS:       1400
LLC PREFETCH REQUESTED:          0 ISSUED:          0 USEFUL:          0 USELESS:          0
LLC AVERAGE MISS LATENCY: 291.3 cycles
cpu0_DTLB TOTAL        ACCESS:    7781101 HIT:    7246415 MISS:     534686
cpu0_DTLB LOAD         ACCESS:    7781101 HIT:    7246415 MISS:     534686
cpu0_DTLB RFO          ACCESS:          0 HIT:          0 MISS:          0
cpu0_DTLB PREFETCH     ACCESS:          0 HIT:          0 MISS:          0
cpu0_DTLB WRITE        ACCESS:          0 HIT:          0 MISS:          0
cpu0_DTLB TRANSLATION  ACCESS:          0 HIT:          0 MISS:          0
cpu0_DTLB PREFETCH REQUESTED:          0 ISSUED:          0 USEFUL:          0 USELESS:          0
cpu0_DTLB AVERAGE MISS LATENCY: 8.661 cycles
cpu0_ITLB TOTAL        ACCESS:      10093 HIT:      10093 MISS:          0
cpu0_ITLB LOAD         ACCESS:      10093 HIT:      10093 MISS:          0
cpu0_ITLB RFO          ACCESS:          0 HIT:          0 MISS:          0
cpu0_ITLB PREFETCH     ACCESS:          0 HIT:          0 MISS:          0
cpu0_ITLB WRITE        ACCESS:          0 HIT:          0 MISS:          0
cpu0_ITLB TRANSLATION  ACCESS:          0 HIT:          0 MISS:          0
cpu0_ITLB PREFETCH REQUESTED:          0 ISSUED:          0 USEFUL:          0 USELESS:          0
cpu0_ITLB AVERAGE MISS LATENCY: -nan cycles
cpu0_L1D TOTAL        ACCESS:   16102010 HIT:   13494081 MISS:    2607929
cpu0_L1D LOAD         ACCESS:    7060646 HIT:    5961866 MISS:    1098780
cpu0_L1D RFO          ACCESS:          0 HIT:          0 MISS:          0
cpu0_L1D PREFETCH     ACCESS:    6161722 HIT:    4956630 MISS:    1205092
cpu0_L1D WRITE        ACCESS:    2872996 HIT:    2573192 MISS:     299804
cpu0_L1D TRANSLATION  ACCESS:       6646 HIT:       2393 MISS:       4253
cpu0_L1D PREFETCH REQUESTED:    7172584 ISSUED:    6161714 USEFUL:     205881 USELESS:     584287
cpu0_L1D AVERAGE MISS LATENCY: 55.3 cycles
cpu0_L1I TOTAL        ACCESS:      11241 HIT:      11241 MISS:          0
cpu0_L1I LOAD         ACCESS:      11241 HIT:      11241 MISS:          0
cpu0_L1I RFO          ACCESS:          0 HIT:          0 MISS:          0
cpu0_L1I PREFETCH     ACCESS:          0 HIT:          0 MISS:          0
cpu0_L1I WRITE        ACCESS:          0 HIT:          0 MISS:          0
cpu0_L1I TRANSLATION  ACCESS:          0 HIT:          0 MISS:          0
cpu0_L1I PREFETCH REQUESTED:          0 ISSUED:          0 USEFUL:          0 USELESS:          0
cpu0_L1I AVERAGE MISS LATENCY: -nan cycles
cpu0_L2C TOTAL        ACCESS:    1949845 HIT:     724599 MISS:    1225246
cpu0_L2C LOAD         ACCESS:     811007 HIT:     304703 MISS:     506304
cpu0_L2C RFO          ACCESS:     104307 HIT:      24138 MISS:      80169
cpu0_L2C PREFETCH     ACCESS:     878820 HIT:     243430 MISS:     635390
cpu0_L2C WRITE        ACCESS:     151459 HIT:     151286 MISS:        173
cpu0_L2C TRANSLATION  ACCESS:       4252 HIT:       1042 MISS:       3210
cpu0_L2C PREFETCH REQUESTED:      88608 ISSUED:      88608 USEFUL:      31271 USELESS:       7285
cpu0_L2C AVERAGE MISS LATENCY: 119.7 cycles
cpu0_STLB TOTAL        ACCESS:     444541 HIT:     437931 MISS:       6610
cpu0_STLB LOAD         ACCESS:     444541 HIT:     437931 MISS:       6610
cpu0_STLB RFO          ACCESS:          0 HIT:          0 MISS:          0
cpu0_STLB PREFETCH     ACCESS:          0 HIT:          0 MISS:          0
cpu0_STLB WRITE        ACCESS:          0 HIT:          0 MISS:          0
cpu0_STLB TRANSLATION  ACCESS:          0 HIT:          0 MISS:          0
cpu0_STLB PREFETCH REQUESTED:          0 ISSUED:          0 USEFUL:          0 USELESS:          0
cpu0_STLB AVERAGE MISS LATENCY: 194.1 cycles

DRAM Statistics

Channel 0 RQ ROW_BUFFER_HIT:      89553
  ROW_BUFFER_MISS:     334748
 AVG DBUS CONGESTED CYCLE: 3.855
WQ ROW_BUFFER_HIT: Channel 0 
  ROW_BUFFER_MISS:       1143
  FULL:        756
