WARNING: physical memory size is smaller than virtual memory size.

*** ChampSim Multicore Out-of-Order Simulator ***
Warmup Instructions: 25000000
Simulation Instructions: 25000000
Number of CPUs: 1
Page size: 4096

Off-chip DRAM Size: 4 GiB Channels: 1 Width: 64-bit Data Race: 800 MT/s
Heartbeat CPU 0 instructions: 10000003 cycles: 2500090 heartbeat IPC: 4 cumulative IPC: 4 (Simulation time: 00 hr 00 min 30 sec)
Heartbeat CPU 0 instructions: 20000003 cycles: 5000090 heartbeat IPC: 4 cumulative IPC: 4 (Simulation time: 00 hr 01 min 00 sec)
Warmup finished CPU 0 instructions: 25000003 cycles: 6250091 cumulative IPC: 4 (Simulation time: 00 hr 01 min 15 sec)
Warmup complete CPU 0 instructions: 25000003 cycles: 6250091 cumulative IPC: 4 (Simulation time: 00 hr 01 min 15 sec)
Heartbeat CPU 0 instructions: 30000002 cycles: 31121857 heartbeat IPC: 0.3828 cumulative IPC: 0.201 (Simulation time: 00 hr 04 min 24 sec)
Heartbeat CPU 0 instructions: 40000002 cycles: 82844867 heartbeat IPC: 0.1933 cumulative IPC: 0.1958 (Simulation time: 00 hr 09 min 42 sec)
Heartbeat CPU 0 instructions: 50000002 cycles: 132820516 heartbeat IPC: 0.2001 cumulative IPC: 0.1975 (Simulation time: 00 hr 13 min 01 sec)
Simulation finished CPU 0 instructions: 25000003 cycles: 126570427 cumulative IPC: 0.1975 (Simulation time: 00 hr 13 min 01 sec)
Simulation complete CPU 0 instructions: 25000003 cycles: 126570427 cumulative IPC: 0.1975 (Simulation time: 00 hr 13 min 01 sec)

ChampSim completed all CPUs

=== Simulation ===
CPU 0 runs ./traces/605.mcf_s-1536B.champsimtrace.xz
Region of Interest Statistics

CPU 0 cumulative IPC: 0.1975 instructions: 25000003 cycles: 126570427
CPU 0 Branch Prediction Accuracy: 99.97% MPKI: 0.0528 Average ROB Occupancy at Mispredict: 287.9
Branch type MPKI
BRANCH_DIRECT_JUMP: 0
BRANCH_INDIRECT: 0
BRANCH_CONDITIONAL: 0.0528
BRANCH_DIRECT_CALL: 0
BRANCH_INDIRECT_CALL: 0
BRANCH_RETURN: 0

LLC TOTAL        ACCESS:    2870535 HIT:    1710708 MISS:    1159827
LLC LOAD         ACCESS:     933672 HIT:     804573 MISS:     129099
LLC RFO          ACCESS:      69354 HIT:      69121 MISS:        233
LLC PREFETCH     ACCESS:     747784 HIT:     175792 MISS:     571992
LLC WRITE        ACCESS:     554552 HIT:     554551 MISS:          1
LLC TRANSLATION  ACCESS:     565173 HIT:     106671 MISS:     458502
LLC PREFETCH REQUESTED:          0 ISSUED:          0 USEFUL:          0 USELESS:          0
LLC AVERAGE MISS LATENCY: 1066 cycles
cpu0_DTLB TOTAL        ACCESS:    4338038 HIT:    2900464 MISS:    1437574
cpu0_DTLB LOAD         ACCESS:    4338038 HIT:    2900464 MISS:    1437574
cpu0_DTLB RFO          ACCESS:          0 HIT:          0 MISS:          0
cpu0_DTLB PREFETCH     ACCESS:          0 HIT:          0 MISS:          0
cpu0_DTLB WRITE        ACCESS:          0 HIT:          0 MISS:          0
cpu0_DTLB TRANSLATION  ACCESS:          0 HIT:          0 MISS:          0
cpu0_DTLB PREFETCH REQUESTED:          0 ISSUED:          0 USEFUL:          0 USELESS:          0
cpu0_DTLB AVERAGE MISS LATENCY: 359 cycles
cpu0_ITLB TOTAL        ACCESS:          0 HIT:          0 MISS:          0
cpu0_ITLB LOAD         ACCESS:          0 HIT:          0 MISS:          0
cpu0_ITLB RFO          ACCESS:          0 HIT:          0 MISS:          0
cpu0_ITLB PREFETCH     ACCESS:          0 HIT:          0 MISS:          0
cpu0_ITLB WRITE        ACCESS:          0 HIT:          0 MISS:          0
cpu0_ITLB TRANSLATION  ACCESS:          0 HIT:          0 MISS:          0
cpu0_ITLB PREFETCH REQUESTED:          0 ISSUED:          0 USEFUL:          0 USELESS:          0
cpu0_ITLB AVERAGE MISS LATENCY: -nan cycles
cpu0_L1D TOTAL        ACCESS:   10062912 HIT:    5369558 MISS:    4693354
cpu0_L1D LOAD         ACCESS:    4152029 HIT:    2174489 MISS:    1977540
cpu0_L1D RFO          ACCESS:          0 HIT:          0 MISS:          0
cpu0_L1D PREFETCH     ACCESS:    4208642 HIT:    2163785 MISS:    2044857
cpu0_L1D WRITE        ACCESS:    1034989 HIT:     958462 MISS:      76527
cpu0_L1D TRANSLATION  ACCESS:     667252 HIT:      72822 MISS:     594430
cpu0_L1D PREFETCH REQUESTED:    5426766 ISSUED:    4208641 USEFUL:       3287 USELESS:     959038
cpu0_L1D AVERAGE MISS LATENCY: 277.8 cycles
cpu0_L1I TOTAL        ACCESS:          0 HIT:          0 MISS:          0
cpu0_L1I LOAD         ACCESS:          0 HIT:          0 MISS:          0
cpu0_L1I RFO          ACCESS:          0 HIT:          0 MISS:          0
cpu0_L1I PREFETCH     ACCESS:          0 HIT:          0 MISS:          0
cpu0_L1I WRITE        ACCESS:          0 HIT:          0 MISS:          0
cpu0_L1I TRANSLATION  ACCESS:          0 HIT:          0 MISS:          0
cpu0_L1I PREFETCH REQUESTED:          0 ISSUED:          0 USEFUL:          0 USELESS:          0
cpu0_L1I AVERAGE MISS LATENCY: -nan cycles
cpu0_L2C TOTAL        ACCESS:    3523425 HIT:    1200308 MISS:    2323117
cpu0_L2C LOAD         ACCESS:    1233884 HIT:     298358 MISS:     935526
cpu0_L2C RFO          ACCESS:      76123 HIT:       6769 MISS:      69354
cpu0_L2C PREFETCH     ACCESS:    1059603 HIT:     306542 MISS:     753061
cpu0_L2C WRITE        ACCESS:     561119 HIT:     561117 MISS:          2
cpu0_L2C TRANSLATION  ACCESS:     592696 HIT:      27522 MISS:     565174
cpu0_L2C PREFETCH REQUESTED:      97292 ISSUED:      97292 USEFUL:      21543 USELESS:      27725
cpu0_L2C AVERAGE MISS LATENCY: 551.8 cycles
cpu0_STLB TOTAL        ACCESS:     663809 HIT:     101781 MISS:     562028
cpu0_STLB LOAD         ACCESS:     663809 HIT:     101781 MISS:     562028
cpu0_STLB RFO          ACCESS:          0 HIT:          0 MISS:          0
cpu0_STLB PREFETCH     ACCESS:          0 HIT:          0 MISS:          0
cpu0_STLB WRITE        ACCESS:          0 HIT:          0 MISS:          0
cpu0_STLB TRANSLATION  ACCESS:          0 HIT:          0 MISS:          0
cpu0_STLB PREFETCH REQUESTED:          0 ISSUED:          0 USEFUL:          0 USELESS:          0
cpu0_STLB AVERAGE MISS LATENCY: 919.8 cycles

DRAM Statistics

Channel 0 RQ ROW_BUFFER_HIT:      71599
  ROW_BUFFER_MISS:    1087803
 AVG DBUS CONGESTED CYCLE: 3.974
WQ ROW_BUFFER_HIT: Channel 0 
  ROW_BUFFER_MISS:       1368
  FULL:     554165
