WARNING: physical memory size is smaller than virtual memory size.

*** ChampSim Multicore Out-of-Order Simulator ***
Warmup Instructions: 25000000
Simulation Instructions: 25000000
Number of CPUs: 1
Page size: 4096

Off-chip DRAM Size: 4 GiB Channels: 1 Width: 64-bit Data Race: 800 MT/s
Heartbeat CPU 0 instructions: 10000000 cycles: 2500791 heartbeat IPC: 3.999 cumulative IPC: 3.999 (Simulation time: 00 hr 00 min 28 sec)
Heartbeat CPU 0 instructions: 20000001 cycles: 5001208 heartbeat IPC: 3.999 cumulative IPC: 3.999 (Simulation time: 00 hr 00 min 56 sec)
Warmup finished CPU 0 instructions: 25000000 cycles: 6254247 cumulative IPC: 3.997 (Simulation time: 00 hr 01 min 09 sec)
Warmup complete CPU 0 instructions: 25000000 cycles: 6254247 cumulative IPC: 3.997 (Simulation time: 00 hr 01 min 09 sec)
Heartbeat CPU 0 instructions: 30000000 cycles: 24389838 heartbeat IPC: 0.5158 cumulative IPC: 0.2757 (Simulation time: 00 hr 02 min 25 sec)
Heartbeat CPU 0 instructions: 40000001 cycles: 47238847 heartbeat IPC: 0.4377 cumulative IPC: 0.366 (Simulation time: 00 hr 03 min 53 sec)
Heartbeat CPU 0 instructions: 50000000 cycles: 152924628 heartbeat IPC: 0.09462 cumulative IPC: 0.1705 (Simulation time: 00 hr 07 min 35 sec)
Simulation finished CPU 0 instructions: 25000000 cycles: 146670382 cumulative IPC: 0.1705 (Simulation time: 00 hr 07 min 35 sec)
Simulation complete CPU 0 instructions: 25000000 cycles: 146670382 cumulative IPC: 0.1705 (Simulation time: 00 hr 07 min 35 sec)

ChampSim completed all CPUs

=== Simulation ===
CPU 0 runs ./traces/605.mcf_s-994B.champsimtrace.xz
Region of Interest Statistics

CPU 0 cumulative IPC: 0.1705 instructions: 25000000 cycles: 146670382
CPU 0 Branch Prediction Accuracy: 91.07% MPKI: 22.99 Average ROB Occupancy at Mispredict: 32.16
Branch type MPKI
BRANCH_DIRECT_JUMP: 0.125
BRANCH_INDIRECT: 0
BRANCH_CONDITIONAL: 22.9
BRANCH_DIRECT_CALL: 0
BRANCH_INDIRECT_CALL: 0.00236
BRANCH_RETURN: 4e-05

LLC TOTAL        ACCESS:    1513796 HIT:     379613 MISS:    1134183
LLC LOAD         ACCESS:     724106 HIT:     189623 MISS:     534483
LLC RFO          ACCESS:       1895 HIT:       1618 MISS:        277
LLC PREFETCH     ACCESS:     496127 HIT:     105249 MISS:     390878
LLC WRITE        ACCESS:      59089 HIT:      58929 MISS:        160
LLC TRANSLATION  ACCESS:     232579 HIT:      24194 MISS:     208385
LLC PREFETCH REQUESTED:          0 ISSUED:          0 USEFUL:          0 USELESS:          0
LLC AVERAGE MISS LATENCY: 295.2 cycles
cpu0_DTLB TOTAL        ACCESS:    7595632 HIT:    7132419 MISS:     463213
cpu0_DTLB LOAD         ACCESS:    7595632 HIT:    7132419 MISS:     463213
cpu0_DTLB RFO          ACCESS:          0 HIT:          0 MISS:          0
cpu0_DTLB PREFETCH     ACCESS:          0 HIT:          0 MISS:          0
cpu0_DTLB WRITE        ACCESS:          0 HIT:          0 MISS:          0
cpu0_DTLB TRANSLATION  ACCESS:          0 HIT:          0 MISS:          0
cpu0_DTLB PREFETCH REQUESTED:          0 ISSUED:          0 USEFUL:          0 USELESS:          0
cpu0_DTLB AVERAGE MISS LATENCY: 232.5 cycles
cpu0_ITLB TOTAL        ACCESS:       2013 HIT:       2013 MISS:          0
cpu0_ITLB LOAD         ACCESS:       2013 HIT:       2013 MISS:          0
cpu0_ITLB RFO          ACCESS:          0 HIT:          0 MISS:          0
cpu0_ITLB PREFETCH     ACCESS:          0 HIT:          0 MISS:          0
cpu0_ITLB WRITE        ACCESS:          0 HIT:          0 MISS:          0
cpu0_ITLB TRANSLATION  ACCESS:          0 HIT:          0 MISS:          0
cpu0_ITLB PREFETCH REQUESTED:          0 ISSUED:          0 USEFUL:          0 USELESS:          0
cpu0_ITLB AVERAGE MISS LATENCY: -nan cycles
cpu0_L1D TOTAL        ACCESS:   15688076 HIT:   13474632 MISS:    2213444
cpu0_L1D LOAD         ACCESS:    7123816 HIT:    6110201 MISS:    1013615
cpu0_L1D RFO          ACCESS:          0 HIT:          0 MISS:          0
cpu0_L1D PREFETCH     ACCESS:    5643538 HIT:    4800149 MISS:     843389
cpu0_L1D WRITE        ACCESS:    2522831 HIT:    2482544 MISS:      40287
cpu0_L1D TRANSLATION  ACCESS:     397891 HIT:      81738 MISS:     316153
cpu0_L1D PREFETCH REQUESTED:    7410473 ISSUED:    5643536 USEFUL:      48408 USELESS:     515495
cpu0_L1D AVERAGE MISS LATENCY: 171.3 cycles
cpu0_L1I TOTAL        ACCESS:       2013 HIT:       2013 MISS:          0
cpu0_L1I LOAD         ACCESS:       2013 HIT:       2013 MISS:          0
cpu0_L1I RFO          ACCESS:          0 HIT:          0 MISS:          0
cpu0_L1I PREFETCH     ACCESS:          0 HIT:          0 MISS:          0
cpu0_L1I WRITE        ACCESS:          0 HIT:          0 MISS:          0
cpu0_L1I TRANSLATION  ACCESS:          0 HIT:          0 MISS:          0
cpu0_L1I PREFETCH REQUESTED:          0 ISSUED:          0 USEFUL:          0 USELESS:          0
cpu0_L1I AVERAGE MISS LATENCY: -nan cycles
cpu0_L2C TOTAL        ACCESS:    2027188 HIT:     572153 MISS:    1455035
cpu0_L2C LOAD         ACCESS:     975991 HIT:     251876 MISS:     724115
cpu0_L2C RFO          ACCESS:      10699 HIT:       8804 MISS:       1895
cpu0_L2C PREFETCH     ACCESS:     643281 HIT:     147055 MISS:     496226
cpu0_L2C WRITE        ACCESS:      81390 HIT:      81170 MISS:        220
cpu0_L2C TRANSLATION  ACCESS:     315827 HIT:      83248 MISS:     232579
cpu0_L2C PREFETCH REQUESTED:      79284 ISSUED:      79284 USEFUL:      24209 USELESS:        312
cpu0_L2C AVERAGE MISS LATENCY: 250.8 cycles
cpu0_STLB TOTAL        ACCESS:     396879 HIT:     160101 MISS:     236778
cpu0_STLB LOAD         ACCESS:     396879 HIT:     160101 MISS:     236778
cpu0_STLB RFO          ACCESS:          0 HIT:          0 MISS:          0
cpu0_STLB PREFETCH     ACCESS:          0 HIT:          0 MISS:          0
cpu0_STLB WRITE        ACCESS:          0 HIT:          0 MISS:          0
cpu0_STLB TRANSLATION  ACCESS:          0 HIT:          0 MISS:          0
cpu0_STLB PREFETCH REQUESTED:          0 ISSUED:          0 USEFUL:          0 USELESS:          0
cpu0_STLB AVERAGE MISS LATENCY: 442.6 cycles

DRAM Statistics

Channel 0 RQ ROW_BUFFER_HIT:     179508
  ROW_BUFFER_MISS:     954343
 AVG DBUS CONGESTED CYCLE: 3.902
WQ ROW_BUFFER_HIT: Channel 0 
  ROW_BUFFER_MISS:       8679
  FULL:      31185
