WARNING: physical memory size is smaller than virtual memory size.

*** ChampSim Multicore Out-of-Order Simulator ***
Warmup Instructions: 25000000
Simulation Instructions: 25000000
Number of CPUs: 1
Page size: 4096

Off-chip DRAM Size: 4 GiB Channels: 1 Width: 64-bit Data Race: 800 MT/s
Heartbeat CPU 0 instructions: 10000000 cycles: 2505979 heartbeat IPC: 3.99 cumulative IPC: 3.99 (Simulation time: 00 hr 00 min 32 sec)
Heartbeat CPU 0 instructions: 20000001 cycles: 5012015 heartbeat IPC: 3.99 cumulative IPC: 3.99 (Simulation time: 00 hr 01 min 04 sec)
Warmup finished CPU 0 instructions: 25000001 cycles: 6263564 cumulative IPC: 3.991 (Simulation time: 00 hr 01 min 20 sec)
Warmup complete CPU 0 instructions: 25000001 cycles: 6263564 cumulative IPC: 3.991 (Simulation time: 00 hr 01 min 20 sec)
Heartbeat CPU 0 instructions: 30000000 cycles: 49607584 heartbeat IPC: 0.2242 cumulative IPC: 0.1154 (Simulation time: 00 hr 03 min 55 sec)
Heartbeat CPU 0 instructions: 40000002 cycles: 135533621 heartbeat IPC: 0.1164 cumulative IPC: 0.116 (Simulation time: 00 hr 07 min 07 sec)
Heartbeat CPU 0 instructions: 50000000 cycles: 224508812 heartbeat IPC: 0.1124 cumulative IPC: 0.1146 (Simulation time: 00 hr 10 min 04 sec)
Simulation finished CPU 0 instructions: 25000000 cycles: 218245258 cumulative IPC: 0.1146 (Simulation time: 00 hr 10 min 04 sec)
Simulation complete CPU 0 instructions: 25000000 cycles: 218245258 cumulative IPC: 0.1146 (Simulation time: 00 hr 10 min 04 sec)

ChampSim completed all CPUs

=== Simulation ===
CPU 0 runs ./traces/605.mcf_s-782B.champsimtrace.xz
Region of Interest Statistics

CPU 0 cumulative IPC: 0.1146 instructions: 25000000 cycles: 218245258
CPU 0 Branch Prediction Accuracy: 83.68% MPKI: 49.87 Average ROB Occupancy at Mispredict: 4.389
Branch type MPKI
BRANCH_DIRECT_JUMP: 1.03
BRANCH_INDIRECT: 0
BRANCH_CONDITIONAL: 48.8
BRANCH_DIRECT_CALL: 4e-05
BRANCH_INDIRECT_CALL: 0.00088
BRANCH_RETURN: 0

LLC TOTAL        ACCESS:    5948427 HIT:    3489004 MISS:    2459423
LLC LOAD         ACCESS:    2593620 HIT:    1801977 MISS:     791643
LLC RFO          ACCESS:       7270 HIT:       6375 MISS:        895
LLC PREFETCH     ACCESS:    3260958 HIT:    1598909 MISS:    1662049
LLC WRITE        ACCESS:      78659 HIT:      78428 MISS:        231
LLC TRANSLATION  ACCESS:       7920 HIT:       3315 MISS:       4605
LLC PREFETCH REQUESTED:          0 ISSUED:          0 USEFUL:          0 USELESS:          0
LLC AVERAGE MISS LATENCY: 321.7 cycles
cpu0_DTLB TOTAL        ACCESS:    6871431 HIT:    4544425 MISS:    2327006
cpu0_DTLB LOAD         ACCESS:    6871431 HIT:    4544425 MISS:    2327006
cpu0_DTLB RFO          ACCESS:          0 HIT:          0 MISS:          0
cpu0_DTLB PREFETCH     ACCESS:          0 HIT:          0 MISS:          0
cpu0_DTLB WRITE        ACCESS:          0 HIT:          0 MISS:          0
cpu0_DTLB TRANSLATION  ACCESS:          0 HIT:          0 MISS:          0
cpu0_DTLB PREFETCH REQUESTED:          0 ISSUED:          0 USEFUL:          0 USELESS:          0
cpu0_DTLB AVERAGE MISS LATENCY: 10.35 cycles
cpu0_ITLB TOTAL        ACCESS:      25175 HIT:      25175 MISS:          0
cpu0_ITLB LOAD         ACCESS:      25175 HIT:      25175 MISS:          0
cpu0_ITLB RFO          ACCESS:          0 HIT:          0 MISS:          0
cpu0_ITLB PREFETCH     ACCESS:          0 HIT:          0 MISS:          0
cpu0_ITLB WRITE        ACCESS:          0 HIT:          0 MISS:          0
cpu0_ITLB TRANSLATION  ACCESS:          0 HIT:          0 MISS:          0
cpu0_ITLB PREFETCH REQUESTED:          0 ISSUED:          0 USEFUL:          0 USELESS:          0
cpu0_ITLB AVERAGE MISS LATENCY: -nan cycles
cpu0_L1D TOTAL        ACCESS:   13723211 HIT:    3430235 MISS:   10292976
cpu0_L1D LOAD         ACCESS:    7126936 HIT:    2309644 MISS:    4817292
cpu0_L1D RFO          ACCESS:          0 HIT:          0 MISS:          0
cpu0_L1D PREFETCH     ACCESS:    6110938 HIT:     679004 MISS:    5431934
cpu0_L1D WRITE        ACCESS:     456116 HIT:     425311 MISS:      30805
cpu0_L1D TRANSLATION  ACCESS:      29221 HIT:      16276 MISS:      12945
cpu0_L1D PREFETCH REQUESTED:   15084586 ISSUED:    6110930 USEFUL:     969565 USELESS:    2147316
cpu0_L1D AVERAGE MISS LATENCY: 79.65 cycles
cpu0_L1I TOTAL        ACCESS:      28039 HIT:      28039 MISS:          0
cpu0_L1I LOAD         ACCESS:      28039 HIT:      28039 MISS:          0
cpu0_L1I RFO          ACCESS:          0 HIT:          0 MISS:          0
cpu0_L1I PREFETCH     ACCESS:          0 HIT:          0 MISS:          0
cpu0_L1I WRITE        ACCESS:          0 HIT:          0 MISS:          0
cpu0_L1I TRANSLATION  ACCESS:          0 HIT:          0 MISS:          0
cpu0_L1I PREFETCH REQUESTED:          0 ISSUED:          0 USEFUL:          0 USELESS:          0
cpu0_L1I AVERAGE MISS LATENCY: -nan cycles
cpu0_L2C TOTAL        ACCESS:    6836273 HIT:     717470 MISS:    6118803
cpu0_L2C LOAD         ACCESS:    2965389 HIT:     318115 MISS:    2647274
cpu0_L2C RFO          ACCESS:       7448 HIT:        178 MISS:       7270
cpu0_L2C PREFETCH     ACCESS:    3767278 HIT:     310942 MISS:    3456336
cpu0_L2C WRITE        ACCESS:      83219 HIT:      83216 MISS:          3
cpu0_L2C TRANSLATION  ACCESS:      12939 HIT:       5019 MISS:       7920
cpu0_L2C PREFETCH REQUESTED:     650298 ISSUED:     650298 USEFUL:     181367 USELESS:      24733
cpu0_L2C AVERAGE MISS LATENCY: 143.4 cycles
cpu0_STLB TOTAL        ACCESS:    2202568 HIT:    2173569 MISS:      28999
cpu0_STLB LOAD         ACCESS:    2202568 HIT:    2173569 MISS:      28999
cpu0_STLB RFO          ACCESS:          0 HIT:          0 MISS:          0
cpu0_STLB PREFETCH     ACCESS:          0 HIT:          0 MISS:          0
cpu0_STLB WRITE        ACCESS:          0 HIT:          0 MISS:          0
cpu0_STLB TRANSLATION  ACCESS:          0 HIT:          0 MISS:          0
cpu0_STLB PREFETCH REQUESTED:          0 ISSUED:          0 USEFUL:          0 USELESS:          0
cpu0_STLB AVERAGE MISS LATENCY: 249.6 cycles

DRAM Statistics

Channel 0 RQ ROW_BUFFER_HIT:     651960
  ROW_BUFFER_MISS:    1692161
 AVG DBUS CONGESTED CYCLE: 3.842
WQ ROW_BUFFER_HIT: Channel 0 
  ROW_BUFFER_MISS:       6082
  FULL:      30004
