WARNING: physical memory size is smaller than virtual memory size.

*** ChampSim Multicore Out-of-Order Simulator ***
Warmup Instructions: 25000000
Simulation Instructions: 25000000
Number of CPUs: 1
Page size: 4096

Off-chip DRAM Size: 4 GiB Channels: 1 Width: 64-bit Data Race: 800 MT/s
Heartbeat CPU 0 instructions: 10000001 cycles: 2511549 heartbeat IPC: 3.982 cumulative IPC: 3.982 (Simulation time: 00 hr 00 min 32 sec)
Heartbeat CPU 0 instructions: 20000001 cycles: 5022922 heartbeat IPC: 3.982 cumulative IPC: 3.982 (Simulation time: 00 hr 01 min 05 sec)
Warmup finished CPU 0 instructions: 25000001 cycles: 6279141 cumulative IPC: 3.981 (Simulation time: 00 hr 01 min 22 sec)
Warmup complete CPU 0 instructions: 25000001 cycles: 6279141 cumulative IPC: 3.981 (Simulation time: 00 hr 01 min 22 sec)
Heartbeat CPU 0 instructions: 30000002 cycles: 48620364 heartbeat IPC: 0.2294 cumulative IPC: 0.1181 (Simulation time: 00 hr 05 min 47 sec)
Heartbeat CPU 0 instructions: 40000000 cycles: 129515706 heartbeat IPC: 0.1236 cumulative IPC: 0.1217 (Simulation time: 00 hr 11 min 46 sec)
Heartbeat CPU 0 instructions: 50000000 cycles: 208791206 heartbeat IPC: 0.1261 cumulative IPC: 0.1234 (Simulation time: 00 hr 15 min 39 sec)
Simulation finished CPU 0 instructions: 25000003 cycles: 202512067 cumulative IPC: 0.1234 (Simulation time: 00 hr 15 min 39 sec)
Simulation complete CPU 0 instructions: 25000003 cycles: 202512067 cumulative IPC: 0.1234 (Simulation time: 00 hr 15 min 39 sec)

ChampSim completed all CPUs

=== Simulation ===
CPU 0 runs ./traces/605.mcf_s-1554B.champsimtrace.xz
Region of Interest Statistics

CPU 0 cumulative IPC: 0.1234 instructions: 25000003 cycles: 202512067
CPU 0 Branch Prediction Accuracy: 97.34% MPKI: 4.839 Average ROB Occupancy at Mispredict: 44.41
Branch type MPKI
BRANCH_DIRECT_JUMP: 0
BRANCH_INDIRECT: 0
BRANCH_CONDITIONAL: 4.84
BRANCH_DIRECT_CALL: 0
BRANCH_INDIRECT_CALL: 0
BRANCH_RETURN: 0

LLC TOTAL        ACCESS:    6422735 HIT:    1571681 MISS:    4851054
LLC LOAD         ACCESS:    3369823 HIT:     421254 MISS:    2948569
LLC RFO          ACCESS:      72869 HIT:        440 MISS:      72429
LLC PREFETCH     ACCESS:    2887872 HIT:    1058314 MISS:    1829558
LLC WRITE        ACCESS:      91598 HIT:      91460 MISS:        138
LLC TRANSLATION  ACCESS:        573 HIT:        213 MISS:        360
LLC PREFETCH REQUESTED:          0 ISSUED:          0 USEFUL:          0 USELESS:          0
LLC AVERAGE MISS LATENCY: 651.7 cycles
cpu0_DTLB TOTAL        ACCESS:    6392484 HIT:    6257402 MISS:     135082
cpu0_DTLB LOAD         ACCESS:    6392484 HIT:    6257402 MISS:     135082
cpu0_DTLB RFO          ACCESS:          0 HIT:          0 MISS:          0
cpu0_DTLB PREFETCH     ACCESS:          0 HIT:          0 MISS:          0
cpu0_DTLB WRITE        ACCESS:          0 HIT:          0 MISS:          0
cpu0_DTLB TRANSLATION  ACCESS:          0 HIT:          0 MISS:          0
cpu0_DTLB PREFETCH REQUESTED:          0 ISSUED:          0 USEFUL:          0 USELESS:          0
cpu0_DTLB AVERAGE MISS LATENCY: 8.994 cycles
cpu0_ITLB TOTAL        ACCESS:          0 HIT:          0 MISS:          0
cpu0_ITLB LOAD         ACCESS:          0 HIT:          0 MISS:          0
cpu0_ITLB RFO          ACCESS:          0 HIT:          0 MISS:          0
cpu0_ITLB PREFETCH     ACCESS:          0 HIT:          0 MISS:          0
cpu0_ITLB WRITE        ACCESS:          0 HIT:          0 MISS:          0
cpu0_ITLB TRANSLATION  ACCESS:          0 HIT:          0 MISS:          0
cpu0_ITLB PREFETCH REQUESTED:          0 ISSUED:          0 USEFUL:          0 USELESS:          0
cpu0_ITLB AVERAGE MISS LATENCY: -nan cycles
cpu0_L1D TOTAL        ACCESS:    8846009 HIT:    4067522 MISS:    4778487
cpu0_L1D LOAD         ACCESS:    5551974 HIT:    1589875 MISS:    3962099
cpu0_L1D RFO          ACCESS:          0 HIT:          0 MISS:          0
cpu0_L1D PREFETCH     ACCESS:    1535963 HIT:    1017883 MISS:     518080
cpu0_L1D WRITE        ACCESS:    1755901 HIT:    1459685 MISS:     296216
cpu0_L1D TRANSLATION  ACCESS:       2171 HIT:         79 MISS:       2092
cpu0_L1D PREFETCH REQUESTED:  147154574 ISSUED:    1535963 USEFUL:      35015 USELESS:     259114
cpu0_L1D AVERAGE MISS LATENCY: 561.5 cycles
cpu0_L1I TOTAL        ACCESS:          0 HIT:          0 MISS:          0
cpu0_L1I LOAD         ACCESS:          0 HIT:          0 MISS:          0
cpu0_L1I RFO          ACCESS:          0 HIT:          0 MISS:          0
cpu0_L1I PREFETCH     ACCESS:          0 HIT:          0 MISS:          0
cpu0_L1I WRITE        ACCESS:          0 HIT:          0 MISS:          0
cpu0_L1I TRANSLATION  ACCESS:          0 HIT:          0 MISS:          0
cpu0_L1I PREFETCH REQUESTED:          0 ISSUED:          0 USEFUL:          0 USELESS:          0
cpu0_L1I AVERAGE MISS LATENCY: -nan cycles
cpu0_L2C TOTAL        ACCESS:    7102971 HIT:     465029 MISS:    6637942
cpu0_L2C LOAD         ACCESS:    3736464 HIT:     186345 MISS:    3550119
cpu0_L2C RFO          ACCESS:      75172 HIT:       2303 MISS:      72869
cpu0_L2C PREFETCH     ACCESS:    3195282 HIT:     181192 MISS:    3014090
cpu0_L2C WRITE        ACCESS:      93961 HIT:      93670 MISS:        291
cpu0_L2C TRANSLATION  ACCESS:       2092 HIT:       1519 MISS:        573
cpu0_L2C PREFETCH REQUESTED:    2901081 ISSUED:    2901081 USEFUL:     404331 USELESS:     107749
cpu0_L2C AVERAGE MISS LATENCY: 422.8 cycles
cpu0_STLB TOTAL        ACCESS:      98466 HIT:      96298 MISS:       2168
cpu0_STLB LOAD         ACCESS:      98466 HIT:      96298 MISS:       2168
cpu0_STLB RFO          ACCESS:          0 HIT:          0 MISS:          0
cpu0_STLB PREFETCH     ACCESS:          0 HIT:          0 MISS:          0
cpu0_STLB WRITE        ACCESS:          0 HIT:          0 MISS:          0
cpu0_STLB TRANSLATION  ACCESS:          0 HIT:          0 MISS:          0
cpu0_STLB PREFETCH REQUESTED:          0 ISSUED:          0 USEFUL:          0 USELESS:          0
cpu0_STLB AVERAGE MISS LATENCY: 293.3 cycles

DRAM Statistics

Channel 0 RQ ROW_BUFFER_HIT:    3333458
  ROW_BUFFER_MISS:     693064
 AVG DBUS CONGESTED CYCLE: 3.925
WQ ROW_BUFFER_HIT: Channel 0 
  ROW_BUFFER_MISS:      15708
  FULL:      74281
