WARNING: physical memory size is smaller than virtual memory size.

*** ChampSim Multicore Out-of-Order Simulator ***
Warmup Instructions: 25000000
Simulation Instructions: 25000000
Number of CPUs: 1
Page size: 4096

Off-chip DRAM Size: 4 GiB Channels: 1 Width: 64-bit Data Race: 800 MT/s
Heartbeat CPU 0 instructions: 10000002 cycles: 2704112 heartbeat IPC: 3.698 cumulative IPC: 3.698 (Simulation time: 00 hr 00 min 38 sec)
Heartbeat CPU 0 instructions: 20000001 cycles: 5407580 heartbeat IPC: 3.699 cumulative IPC: 3.699 (Simulation time: 00 hr 01 min 18 sec)
Warmup finished CPU 0 instructions: 25000003 cycles: 6759924 cumulative IPC: 3.698 (Simulation time: 00 hr 01 min 39 sec)
Warmup complete CPU 0 instructions: 25000003 cycles: 6759924 cumulative IPC: 3.698 (Simulation time: 00 hr 01 min 39 sec)
Heartbeat CPU 0 instructions: 30000003 cycles: 9051017 heartbeat IPC: 2.745 cumulative IPC: 2.182 (Simulation time: 00 hr 02 min 12 sec)
Heartbeat CPU 0 instructions: 40000003 cycles: 13512347 heartbeat IPC: 2.241 cumulative IPC: 2.221 (Simulation time: 00 hr 03 min 11 sec)
Heartbeat CPU 0 instructions: 50000000 cycles: 18309271 heartbeat IPC: 2.085 cumulative IPC: 2.165 (Simulation time: 00 hr 04 min 07 sec)
Simulation finished CPU 0 instructions: 25000001 cycles: 11549349 cumulative IPC: 2.165 (Simulation time: 00 hr 04 min 07 sec)
Simulation complete CPU 0 instructions: 25000001 cycles: 11549349 cumulative IPC: 2.165 (Simulation time: 00 hr 04 min 07 sec)

ChampSim completed all CPUs

=== Simulation ===
CPU 0 runs ./traces/607.cactuBSSN_s-3477B.champsimtrace.xz
Region of Interest Statistics

CPU 0 cumulative IPC: 2.165 instructions: 25000001 cycles: 11549349
CPU 0 Branch Prediction Accuracy: 91.83% MPKI: 0.7242 Average ROB Occupancy at Mispredict: 288.3
Branch type MPKI
BRANCH_DIRECT_JUMP: 0
BRANCH_INDIRECT: 4e-05
BRANCH_CONDITIONAL: 0.363
BRANCH_DIRECT_CALL: 0
BRANCH_INDIRECT_CALL: 0
BRANCH_RETURN: 0.362

LLC TOTAL        ACCESS:     260451 HIT:     188314 MISS:      72137
LLC LOAD         ACCESS:     118326 HIT:      87315 MISS:      31011
LLC RFO          ACCESS:      22253 HIT:       7628 MISS:      14625
LLC PREFETCH     ACCESS:      95563 HIT:      70060 MISS:      25503
LLC WRITE        ACCESS:      22596 HIT:      22569 MISS:         27
LLC TRANSLATION  ACCESS:       1713 HIT:        742 MISS:        971
LLC PREFETCH REQUESTED:          0 ISSUED:          0 USEFUL:          0 USELESS:          0
LLC AVERAGE MISS LATENCY: 845.2 cycles
cpu0_DTLB TOTAL        ACCESS:    6348566 HIT:    5242050 MISS:    1106516
cpu0_DTLB LOAD         ACCESS:    6348566 HIT:    5242050 MISS:    1106516
cpu0_DTLB RFO          ACCESS:          0 HIT:          0 MISS:          0
cpu0_DTLB PREFETCH     ACCESS:          0 HIT:          0 MISS:          0
cpu0_DTLB WRITE        ACCESS:          0 HIT:          0 MISS:          0
cpu0_DTLB TRANSLATION  ACCESS:          0 HIT:          0 MISS:          0
cpu0_DTLB PREFETCH REQUESTED:          0 ISSUED:          0 USEFUL:          0 USELESS:          0
cpu0_DTLB AVERAGE MISS LATENCY: 7.24 cycles
cpu0_ITLB TOTAL        ACCESS:    3019882 HIT:    3019882 MISS:          0
cpu0_ITLB LOAD         ACCESS:    3019882 HIT:    3019882 MISS:          0
cpu0_ITLB RFO          ACCESS:          0 HIT:          0 MISS:          0
cpu0_ITLB PREFETCH     ACCESS:          0 HIT:          0 MISS:          0
cpu0_ITLB WRITE        ACCESS:          0 HIT:          0 MISS:          0
cpu0_ITLB TRANSLATION  ACCESS:          0 HIT:          0 MISS:          0
cpu0_ITLB PREFETCH REQUESTED:          0 ISSUED:          0 USEFUL:          0 USELESS:          0
cpu0_ITLB AVERAGE MISS LATENCY: -nan cycles
cpu0_L1D TOTAL        ACCESS:    9388441 HIT:    7124996 MISS:    2263445
cpu0_L1D LOAD         ACCESS:    6332065 HIT:    4420803 MISS:    1911262
cpu0_L1D RFO          ACCESS:          0 HIT:          0 MISS:          0
cpu0_L1D PREFETCH     ACCESS:    1060572 HIT:     907567 MISS:     153005
cpu0_L1D WRITE        ACCESS:    1994034 HIT:    1796609 MISS:     197425
cpu0_L1D TRANSLATION  ACCESS:       1770 HIT:         17 MISS:       1753
cpu0_L1D PREFETCH REQUESTED:    7448975 ISSUED:    1060572 USEFUL:      15110 USELESS:     105714
cpu0_L1D AVERAGE MISS LATENCY: 36.65 cycles
cpu0_L1I TOTAL        ACCESS:    4166048 HIT:    2931165 MISS:    1234883
cpu0_L1I LOAD         ACCESS:    4166048 HIT:    2931165 MISS:    1234883
cpu0_L1I RFO          ACCESS:          0 HIT:          0 MISS:          0
cpu0_L1I PREFETCH     ACCESS:          0 HIT:          0 MISS:          0
cpu0_L1I WRITE        ACCESS:          0 HIT:          0 MISS:          0
cpu0_L1I TRANSLATION  ACCESS:          0 HIT:          0 MISS:          0
cpu0_L1I PREFETCH REQUESTED:          0 ISSUED:          0 USEFUL:          0 USELESS:          0
cpu0_L1I AVERAGE MISS LATENCY: 6.386 cycles
cpu0_L2C TOTAL        ACCESS:    3197442 HIT:    2959095 MISS:     238347
cpu0_L2C LOAD         ACCESS:    2531186 HIT:    2412857 MISS:     118329
cpu0_L2C RFO          ACCESS:     169779 HIT:     147335 MISS:      22444
cpu0_L2C PREFETCH     ACCESS:     301677 HIT:     205886 MISS:      95791
cpu0_L2C WRITE        ACCESS:     193050 HIT:     192980 MISS:         70
cpu0_L2C TRANSLATION  ACCESS:       1750 HIT:         37 MISS:       1713
cpu0_L2C PREFETCH REQUESTED:     208882 ISSUED:     180839 USEFUL:      46109 USELESS:        339
cpu0_L2C AVERAGE MISS LATENCY: 273.5 cycles
cpu0_STLB TOTAL        ACCESS:     949341 HIT:     948136 MISS:       1205
cpu0_STLB LOAD         ACCESS:     949341 HIT:     948136 MISS:       1205
cpu0_STLB RFO          ACCESS:          0 HIT:          0 MISS:          0
cpu0_STLB PREFETCH     ACCESS:          0 HIT:          0 MISS:          0
cpu0_STLB WRITE        ACCESS:          0 HIT:          0 MISS:          0
cpu0_STLB TRANSLATION  ACCESS:          0 HIT:          0 MISS:          0
cpu0_STLB PREFETCH REQUESTED:          0 ISSUED:          0 USEFUL:          0 USELESS:          0
cpu0_STLB AVERAGE MISS LATENCY: 985 cycles

DRAM Statistics

Channel 0 RQ ROW_BUFFER_HIT:      35592
  ROW_BUFFER_MISS:      36517
 AVG DBUS CONGESTED CYCLE: 3.87
WQ ROW_BUFFER_HIT: Channel 0 
  ROW_BUFFER_MISS:       1270
  FULL:      14620
