WARNING: physical memory size is smaller than virtual memory size.

*** ChampSim Multicore Out-of-Order Simulator ***
Warmup Instructions: 25000000
Simulation Instructions: 25000000
Number of CPUs: 1
Page size: 4096

Off-chip DRAM Size: 4 GiB Channels: 1 Width: 64-bit Data Race: 800 MT/s
Heartbeat CPU 0 instructions: 10000002 cycles: 2700093 heartbeat IPC: 3.704 cumulative IPC: 3.704 (Simulation time: 00 hr 00 min 41 sec)
Heartbeat CPU 0 instructions: 20000001 cycles: 5398196 heartbeat IPC: 3.706 cumulative IPC: 3.705 (Simulation time: 00 hr 01 min 20 sec)
Warmup finished CPU 0 instructions: 25000002 cycles: 6747567 cumulative IPC: 3.705 (Simulation time: 00 hr 01 min 39 sec)
Warmup complete CPU 0 instructions: 25000002 cycles: 6747567 cumulative IPC: 3.705 (Simulation time: 00 hr 01 min 39 sec)
Heartbeat CPU 0 instructions: 30000001 cycles: 8980387 heartbeat IPC: 2.792 cumulative IPC: 2.239 (Simulation time: 00 hr 02 min 07 sec)
Heartbeat CPU 0 instructions: 40000000 cycles: 13475783 heartbeat IPC: 2.224 cumulative IPC: 2.229 (Simulation time: 00 hr 03 min 09 sec)
Heartbeat CPU 0 instructions: 50000000 cycles: 17990335 heartbeat IPC: 2.215 cumulative IPC: 2.224 (Simulation time: 00 hr 04 min 09 sec)
Simulation finished CPU 0 instructions: 25000002 cycles: 11242770 cumulative IPC: 2.224 (Simulation time: 00 hr 04 min 09 sec)
Simulation complete CPU 0 instructions: 25000002 cycles: 11242770 cumulative IPC: 2.224 (Simulation time: 00 hr 04 min 09 sec)

ChampSim completed all CPUs

=== Simulation ===
CPU 0 runs ./traces/607.cactuBSSN_s-2421B.champsimtrace.xz
Region of Interest Statistics

CPU 0 cumulative IPC: 2.224 instructions: 25000002 cycles: 11242770
CPU 0 Branch Prediction Accuracy: 91.83% MPKI: 0.728 Average ROB Occupancy at Mispredict: 302.7
Branch type MPKI
BRANCH_DIRECT_JUMP: 0
BRANCH_INDIRECT: 0
BRANCH_CONDITIONAL: 0.365
BRANCH_DIRECT_CALL: 0
BRANCH_INDIRECT_CALL: 0
BRANCH_RETURN: 0.363

LLC TOTAL        ACCESS:     253388 HIT:     186350 MISS:      67038
LLC LOAD         ACCESS:     112515 HIT:      83408 MISS:      29107
LLC RFO          ACCESS:      22015 HIT:       7290 MISS:      14725
LLC PREFETCH     ACCESS:      94980 HIT:      72593 MISS:      22387
LLC WRITE        ACCESS:      22381 HIT:      22320 MISS:         61
LLC TRANSLATION  ACCESS:       1497 HIT:        739 MISS:        758
LLC PREFETCH REQUESTED:          0 ISSUED:          0 USEFUL:          0 USELESS:          0
LLC AVERAGE MISS LATENCY: 823.8 cycles
cpu0_DTLB TOTAL        ACCESS:    6169890 HIT:    5032982 MISS:    1136908
cpu0_DTLB LOAD         ACCESS:    6169890 HIT:    5032982 MISS:    1136908
cpu0_DTLB RFO          ACCESS:          0 HIT:          0 MISS:          0
cpu0_DTLB PREFETCH     ACCESS:          0 HIT:          0 MISS:          0
cpu0_DTLB WRITE        ACCESS:          0 HIT:          0 MISS:          0
cpu0_DTLB TRANSLATION  ACCESS:          0 HIT:          0 MISS:          0
cpu0_DTLB PREFETCH REQUESTED:          0 ISSUED:          0 USEFUL:          0 USELESS:          0
cpu0_DTLB AVERAGE MISS LATENCY: 6.816 cycles
cpu0_ITLB TOTAL        ACCESS:    2998345 HIT:    2998345 MISS:          0
cpu0_ITLB LOAD         ACCESS:    2998345 HIT:    2998345 MISS:          0
cpu0_ITLB RFO          ACCESS:          0 HIT:          0 MISS:          0
cpu0_ITLB PREFETCH     ACCESS:          0 HIT:          0 MISS:          0
cpu0_ITLB WRITE        ACCESS:          0 HIT:          0 MISS:          0
cpu0_ITLB TRANSLATION  ACCESS:          0 HIT:          0 MISS:          0
cpu0_ITLB PREFETCH REQUESTED:          0 ISSUED:          0 USEFUL:          0 USELESS:          0
cpu0_ITLB AVERAGE MISS LATENCY: -nan cycles
cpu0_L1D TOTAL        ACCESS:    9288611 HIT:    7005705 MISS:    2282906
cpu0_L1D LOAD         ACCESS:    6296019 HIT:    4364922 MISS:    1931097
cpu0_L1D RFO          ACCESS:          0 HIT:          0 MISS:          0
cpu0_L1D PREFETCH     ACCESS:     973659 HIT:     825592 MISS:     148067
cpu0_L1D WRITE        ACCESS:    2017390 HIT:    1815162 MISS:     202228
cpu0_L1D TRANSLATION  ACCESS:       1543 HIT:         29 MISS:       1514
cpu0_L1D PREFETCH REQUESTED:    7257819 ISSUED:     973658 USEFUL:      14529 USELESS:     101504
cpu0_L1D AVERAGE MISS LATENCY: 34.45 cycles
cpu0_L1I TOTAL        ACCESS:    4128443 HIT:    3041219 MISS:    1087224
cpu0_L1I LOAD         ACCESS:    4128443 HIT:    3041219 MISS:    1087224
cpu0_L1I RFO          ACCESS:          0 HIT:          0 MISS:          0
cpu0_L1I PREFETCH     ACCESS:          0 HIT:          0 MISS:          0
cpu0_L1I WRITE        ACCESS:          0 HIT:          0 MISS:          0
cpu0_L1I TRANSLATION  ACCESS:          0 HIT:          0 MISS:          0
cpu0_L1I PREFETCH REQUESTED:          0 ISSUED:          0 USEFUL:          0 USELESS:          0
cpu0_L1I AVERAGE MISS LATENCY: 6.55 cycles
cpu0_L2C TOTAL        ACCESS:    3132614 HIT:    2901057 MISS:     231557
cpu0_L2C LOAD         ACCESS:    2471699 HIT:    2359179 MISS:     112520
cpu0_L2C RFO          ACCESS:     167691 HIT:     145414 MISS:      22277
cpu0_L2C PREFETCH     ACCESS:     299274 HIT:     204059 MISS:      95215
cpu0_L2C WRITE        ACCESS:     192436 HIT:     192388 MISS:         48
cpu0_L2C TRANSLATION  ACCESS:       1514 HIT:         17 MISS:       1497
cpu0_L2C PREFETCH REQUESTED:     219106 ISSUED:     183226 USEFUL:      47507 USELESS:         89
cpu0_L2C AVERAGE MISS LATENCY: 258.5 cycles
cpu0_STLB TOTAL        ACCESS:     962053 HIT:     961035 MISS:       1018
cpu0_STLB LOAD         ACCESS:     962053 HIT:     961035 MISS:       1018
cpu0_STLB RFO          ACCESS:          0 HIT:          0 MISS:          0
cpu0_STLB PREFETCH     ACCESS:          0 HIT:          0 MISS:          0
cpu0_STLB WRITE        ACCESS:          0 HIT:          0 MISS:          0
cpu0_STLB TRANSLATION  ACCESS:          0 HIT:          0 MISS:          0
cpu0_STLB PREFETCH REQUESTED:          0 ISSUED:          0 USEFUL:          0 USELESS:          0
cpu0_STLB AVERAGE MISS LATENCY: 790.6 cycles

DRAM Statistics

Channel 0 RQ ROW_BUFFER_HIT:      33762
  ROW_BUFFER_MISS:      33207
 AVG DBUS CONGESTED CYCLE: 3.866
WQ ROW_BUFFER_HIT: Channel 0 
  ROW_BUFFER_MISS:       1389
  FULL:      13032
