WARNING: physical memory size is smaller than virtual memory size.

*** ChampSim Multicore Out-of-Order Simulator ***
Warmup Instructions: 25000000
Simulation Instructions: 25000000
Number of CPUs: 1
Page size: 4096

Off-chip DRAM Size: 4 GiB Channels: 1 Width: 64-bit Data Race: 800 MT/s
Heartbeat CPU 0 instructions: 10000001 cycles: 2956973 heartbeat IPC: 3.382 cumulative IPC: 3.382 (Simulation time: 00 hr 00 min 37 sec)
Heartbeat CPU 0 instructions: 20000003 cycles: 5912584 heartbeat IPC: 3.383 cumulative IPC: 3.383 (Simulation time: 00 hr 01 min 14 sec)
Warmup finished CPU 0 instructions: 25000003 cycles: 7390621 cumulative IPC: 3.383 (Simulation time: 00 hr 01 min 40 sec)
Warmup complete CPU 0 instructions: 25000003 cycles: 7390621 cumulative IPC: 3.383 (Simulation time: 00 hr 01 min 40 sec)
Heartbeat CPU 0 instructions: 30000001 cycles: 40797302 heartbeat IPC: 0.2867 cumulative IPC: 0.1497 (Simulation time: 00 hr 05 min 06 sec)
Heartbeat CPU 0 instructions: 40000002 cycles: 109485869 heartbeat IPC: 0.1456 cumulative IPC: 0.1469 (Simulation time: 00 hr 14 min 11 sec)
Heartbeat CPU 0 instructions: 50000001 cycles: 177712224 heartbeat IPC: 0.1466 cumulative IPC: 0.1468 (Simulation time: 00 hr 21 min 35 sec)
Simulation finished CPU 0 instructions: 25000002 cycles: 170321605 cumulative IPC: 0.1468 (Simulation time: 00 hr 21 min 35 sec)
Simulation complete CPU 0 instructions: 25000002 cycles: 170321605 cumulative IPC: 0.1468 (Simulation time: 00 hr 21 min 35 sec)

ChampSim completed all CPUs

=== Simulation ===
CPU 0 runs ./traces/619.lbm_s-4268B.champsimtrace.xz
Region of Interest Statistics

CPU 0 cumulative IPC: 0.1468 instructions: 25000002 cycles: 170321605
CPU 0 Branch Prediction Accuracy: 95.11% MPKI: 0.871 Average ROB Occupancy at Mispredict: 294.7
Branch type MPKI
BRANCH_DIRECT_JUMP: 0
BRANCH_INDIRECT: 0
BRANCH_CONDITIONAL: 0.871
BRANCH_DIRECT_CALL: 0
BRANCH_INDIRECT_CALL: 0
BRANCH_RETURN: 0

LLC TOTAL        ACCESS:    3428195 HIT:    2205141 MISS:    1223054
LLC LOAD         ACCESS:     206465 HIT:      13651 MISS:     192814
LLC RFO          ACCESS:    1544664 HIT:     664392 MISS:     880272
LLC PREFETCH     ACCESS:     131195 HIT:      12756 MISS:     118439
LLC WRITE        ACCESS:    1545337 HIT:    1513999 MISS:      31338
LLC TRANSLATION  ACCESS:        534 HIT:        343 MISS:        191
LLC PREFETCH REQUESTED:          0 ISSUED:          0 USEFUL:          0 USELESS:          0
LLC AVERAGE MISS LATENCY: 1966 cycles
cpu0_DTLB TOTAL        ACCESS:    5132985 HIT:    5077290 MISS:      55695
cpu0_DTLB LOAD         ACCESS:    5132985 HIT:    5077290 MISS:      55695
cpu0_DTLB RFO          ACCESS:          0 HIT:          0 MISS:          0
cpu0_DTLB PREFETCH     ACCESS:          0 HIT:          0 MISS:          0
cpu0_DTLB WRITE        ACCESS:          0 HIT:          0 MISS:          0
cpu0_DTLB TRANSLATION  ACCESS:          0 HIT:          0 MISS:          0
cpu0_DTLB PREFETCH REQUESTED:          0 ISSUED:          0 USEFUL:          0 USELESS:          0
cpu0_DTLB AVERAGE MISS LATENCY: 120.9 cycles
cpu0_ITLB TOTAL        ACCESS:          0 HIT:          0 MISS:          0
cpu0_ITLB LOAD         ACCESS:          0 HIT:          0 MISS:          0
cpu0_ITLB RFO          ACCESS:          0 HIT:          0 MISS:          0
cpu0_ITLB PREFETCH     ACCESS:          0 HIT:          0 MISS:          0
cpu0_ITLB WRITE        ACCESS:          0 HIT:          0 MISS:          0
cpu0_ITLB TRANSLATION  ACCESS:          0 HIT:          0 MISS:          0
cpu0_ITLB PREFETCH REQUESTED:          0 ISSUED:          0 USEFUL:          0 USELESS:          0
cpu0_ITLB AVERAGE MISS LATENCY: -nan cycles
cpu0_L1D TOTAL        ACCESS:    8029001 HIT:    4913134 MISS:    3115867
cpu0_L1D LOAD         ACCESS:    1723797 HIT:    1161140 MISS:     562657
cpu0_L1D RFO          ACCESS:          0 HIT:          0 MISS:          0
cpu0_L1D PREFETCH     ACCESS:    1724866 HIT:     965916 MISS:     758950
cpu0_L1D WRITE        ACCESS:    4561916 HIT:    2786058 MISS:    1775858
cpu0_L1D TRANSLATION  ACCESS:      18422 HIT:         20 MISS:      18402
cpu0_L1D PREFETCH REQUESTED:   16966632 ISSUED:    1724865 USEFUL:      72200 USELESS:       2659
cpu0_L1D AVERAGE MISS LATENCY: 703.6 cycles
cpu0_L1I TOTAL        ACCESS:          0 HIT:          0 MISS:          0
cpu0_L1I LOAD         ACCESS:          0 HIT:          0 MISS:          0
cpu0_L1I RFO          ACCESS:          0 HIT:          0 MISS:          0
cpu0_L1I PREFETCH     ACCESS:          0 HIT:          0 MISS:          0
cpu0_L1I WRITE        ACCESS:          0 HIT:          0 MISS:          0
cpu0_L1I TRANSLATION  ACCESS:          0 HIT:          0 MISS:          0
cpu0_L1I PREFETCH REQUESTED:          0 ISSUED:          0 USEFUL:          0 USELESS:          0
cpu0_L1I AVERAGE MISS LATENCY: -nan cycles
cpu0_L2C TOTAL        ACCESS:    3726787 HIT:    1840370 MISS:    1886417
cpu0_L2C LOAD         ACCESS:     222588 HIT:      15221 MISS:     207367
cpu0_L2C RFO          ACCESS:    1669730 HIT:     125067 MISS:    1544663
cpu0_L2C PREFETCH     ACCESS:     146324 HIT:      12471 MISS:     133853
cpu0_L2C WRITE        ACCESS:    1669743 HIT:    1669743 MISS:          0
cpu0_L2C TRANSLATION  ACCESS:      18402 HIT:      17868 MISS:        534
cpu0_L2C PREFETCH REQUESTED:      71465 ISSUED:      71465 USEFUL:      16314 USELESS:        456
cpu0_L2C AVERAGE MISS LATENCY: 1263 cycles
cpu0_STLB TOTAL        ACCESS:      33920 HIT:      15516 MISS:      18404
cpu0_STLB LOAD         ACCESS:      33920 HIT:      15516 MISS:      18404
cpu0_STLB RFO          ACCESS:          0 HIT:          0 MISS:          0
cpu0_STLB PREFETCH     ACCESS:          0 HIT:          0 MISS:          0
cpu0_STLB WRITE        ACCESS:          0 HIT:          0 MISS:          0
cpu0_STLB TRANSLATION  ACCESS:          0 HIT:          0 MISS:          0
cpu0_STLB PREFETCH REQUESTED:          0 ISSUED:          0 USEFUL:          0 USELESS:          0
cpu0_STLB AVERAGE MISS LATENCY: 437.2 cycles

DRAM Statistics

Channel 0 RQ ROW_BUFFER_HIT:      89363
  ROW_BUFFER_MISS:    1088507
 AVG DBUS CONGESTED CYCLE: 3.983
WQ ROW_BUFFER_HIT: Channel 0 
  ROW_BUFFER_MISS:      24231
  FULL:     859706
