WARNING: physical memory size is smaller than virtual memory size.

*** ChampSim Multicore Out-of-Order Simulator ***
Warmup Instructions: 25000000
Simulation Instructions: 25000000
Number of CPUs: 1
Page size: 4096

Off-chip DRAM Size: 4 GiB Channels: 1 Width: 64-bit Data Race: 800 MT/s
Heartbeat CPU 0 instructions: 10000003 cycles: 2500085 heartbeat IPC: 4 cumulative IPC: 4 (Simulation time: 00 hr 00 min 29 sec)
Heartbeat CPU 0 instructions: 20000002 cycles: 5008076 heartbeat IPC: 3.987 cumulative IPC: 3.994 (Simulation time: 00 hr 01 min 01 sec)
Warmup finished CPU 0 instructions: 25000002 cycles: 6258077 cumulative IPC: 3.995 (Simulation time: 00 hr 01 min 18 sec)
Warmup complete CPU 0 instructions: 25000002 cycles: 6258077 cumulative IPC: 3.995 (Simulation time: 00 hr 01 min 18 sec)
Heartbeat CPU 0 instructions: 30000002 cycles: 21337770 heartbeat IPC: 0.6124 cumulative IPC: 0.3316 (Simulation time: 00 hr 03 min 23 sec)
Heartbeat CPU 0 instructions: 40000000 cycles: 52341838 heartbeat IPC: 0.3225 cumulative IPC: 0.3255 (Simulation time: 00 hr 07 min 08 sec)
Heartbeat CPU 0 instructions: 50000002 cycles: 83793172 heartbeat IPC: 0.318 cumulative IPC: 0.3224 (Simulation time: 00 hr 12 min 11 sec)
Simulation finished CPU 0 instructions: 25000000 cycles: 77535096 cumulative IPC: 0.3224 (Simulation time: 00 hr 12 min 11 sec)
Simulation complete CPU 0 instructions: 25000000 cycles: 77535096 cumulative IPC: 0.3224 (Simulation time: 00 hr 12 min 11 sec)

ChampSim completed all CPUs

=== Simulation ===
CPU 0 runs ./traces/619.lbm_s-3766B.champsimtrace.xz
Region of Interest Statistics

CPU 0 cumulative IPC: 0.3224 instructions: 25000000 cycles: 77535096
CPU 0 Branch Prediction Accuracy: 99.7% MPKI: 0.03212 Average ROB Occupancy at Mispredict: 259.2
Branch type MPKI
BRANCH_DIRECT_JUMP: 0
BRANCH_INDIRECT: 0
BRANCH_CONDITIONAL: 0.0321
BRANCH_DIRECT_CALL: 0
BRANCH_INDIRECT_CALL: 0
BRANCH_RETURN: 0

LLC TOTAL        ACCESS:    1385974 HIT:     829118 MISS:     556856
LLC LOAD         ACCESS:      62947 HIT:        411 MISS:      62536
LLC RFO          ACCESS:     622997 HIT:     218282 MISS:     404715
LLC PREFETCH     ACCESS:      75387 HIT:        571 MISS:      74816
LLC WRITE        ACCESS:     624205 HIT:     609491 MISS:      14714
LLC TRANSLATION  ACCESS:        438 HIT:        363 MISS:         75
LLC PREFETCH REQUESTED:          0 ISSUED:          0 USEFUL:          0 USELESS:          0
LLC AVERAGE MISS LATENCY: 1722 cycles
cpu0_DTLB TOTAL        ACCESS:    4267016 HIT:    4243583 MISS:      23433
cpu0_DTLB LOAD         ACCESS:    4267016 HIT:    4243583 MISS:      23433
cpu0_DTLB RFO          ACCESS:          0 HIT:          0 MISS:          0
cpu0_DTLB PREFETCH     ACCESS:          0 HIT:          0 MISS:          0
cpu0_DTLB WRITE        ACCESS:          0 HIT:          0 MISS:          0
cpu0_DTLB TRANSLATION  ACCESS:          0 HIT:          0 MISS:          0
cpu0_DTLB PREFETCH REQUESTED:          0 ISSUED:          0 USEFUL:          0 USELESS:          0
cpu0_DTLB AVERAGE MISS LATENCY: 75.76 cycles
cpu0_ITLB TOTAL        ACCESS:          0 HIT:          0 MISS:          0
cpu0_ITLB LOAD         ACCESS:          0 HIT:          0 MISS:          0
cpu0_ITLB RFO          ACCESS:          0 HIT:          0 MISS:          0
cpu0_ITLB PREFETCH     ACCESS:          0 HIT:          0 MISS:          0
cpu0_ITLB WRITE        ACCESS:          0 HIT:          0 MISS:          0
cpu0_ITLB TRANSLATION  ACCESS:          0 HIT:          0 MISS:          0
cpu0_ITLB PREFETCH REQUESTED:          0 ISSUED:          0 USEFUL:          0 USELESS:          0
cpu0_ITLB AVERAGE MISS LATENCY: -nan cycles
cpu0_L1D TOTAL        ACCESS:    7156470 HIT:    5381097 MISS:    1775373
cpu0_L1D LOAD         ACCESS:    1710928 HIT:    1368025 MISS:     342903
cpu0_L1D RFO          ACCESS:          0 HIT:          0 MISS:          0
cpu0_L1D PREFETCH     ACCESS:    1714707 HIT:    1096523 MISS:     618184
cpu0_L1D WRITE        ACCESS:    3722359 HIT:    2916545 MISS:     805814
cpu0_L1D TRANSLATION  ACCESS:       8476 HIT:          4 MISS:       8472
cpu0_L1D PREFETCH REQUESTED:    2211433 ISSUED:    1714709 USEFUL:      52574 USELESS:       1269
cpu0_L1D AVERAGE MISS LATENCY: 499.6 cycles
cpu0_L1I TOTAL        ACCESS:          0 HIT:          0 MISS:          0
cpu0_L1I LOAD         ACCESS:          0 HIT:          0 MISS:          0
cpu0_L1I RFO          ACCESS:          0 HIT:          0 MISS:          0
cpu0_L1I PREFETCH     ACCESS:          0 HIT:          0 MISS:          0
cpu0_L1I WRITE        ACCESS:          0 HIT:          0 MISS:          0
cpu0_L1I TRANSLATION  ACCESS:          0 HIT:          0 MISS:          0
cpu0_L1I PREFETCH REQUESTED:          0 ISSUED:          0 USEFUL:          0 USELESS:          0
cpu0_L1I AVERAGE MISS LATENCY: -nan cycles
cpu0_L2C TOTAL        ACCESS:    1737617 HIT:     975458 MISS:     762159
cpu0_L2C LOAD         ACCESS:      82864 HIT:      19903 MISS:      62961
cpu0_L2C RFO          ACCESS:     768691 HIT:     145693 MISS:     622998
cpu0_L2C PREFETCH     ACCESS:     108905 HIT:      33143 MISS:      75762
cpu0_L2C WRITE        ACCESS:     768685 HIT:     768685 MISS:          0
cpu0_L2C TRANSLATION  ACCESS:       8472 HIT:       8034 MISS:        438
cpu0_L2C PREFETCH REQUESTED:      55063 ISSUED:      55063 USEFUL:      20156 USELESS:        169
cpu0_L2C AVERAGE MISS LATENCY: 1276 cycles
cpu0_STLB TOTAL        ACCESS:      15602 HIT:       7134 MISS:       8468
cpu0_STLB LOAD         ACCESS:      15602 HIT:       7134 MISS:       8468
cpu0_STLB RFO          ACCESS:          0 HIT:          0 MISS:          0
cpu0_STLB PREFETCH     ACCESS:          0 HIT:          0 MISS:          0
cpu0_STLB WRITE        ACCESS:          0 HIT:          0 MISS:          0
cpu0_STLB TRANSLATION  ACCESS:          0 HIT:          0 MISS:          0
cpu0_STLB PREFETCH REQUESTED:          0 ISSUED:          0 USEFUL:          0 USELESS:          0
cpu0_STLB AVERAGE MISS LATENCY: 216.3 cycles

DRAM Statistics

Channel 0 RQ ROW_BUFFER_HIT:      43177
  ROW_BUFFER_MISS:     498727
 AVG DBUS CONGESTED CYCLE: 3.987
WQ ROW_BUFFER_HIT: Channel 0 
  ROW_BUFFER_MISS:       7030
  FULL:     404358
