WARNING: physical memory size is smaller than virtual memory size.

*** ChampSim Multicore Out-of-Order Simulator ***
Warmup Instructions: 25000000
Simulation Instructions: 25000000
Number of CPUs: 1
Page size: 4096

Off-chip DRAM Size: 4 GiB Channels: 1 Width: 64-bit Data Race: 800 MT/s
Heartbeat CPU 0 instructions: 10000000 cycles: 2502332 heartbeat IPC: 3.996 cumulative IPC: 3.996 (Simulation time: 00 hr 00 min 32 sec)
Heartbeat CPU 0 instructions: 20000001 cycles: 5004332 heartbeat IPC: 3.997 cumulative IPC: 3.997 (Simulation time: 00 hr 01 min 18 sec)
Warmup finished CPU 0 instructions: 25000001 cycles: 6255480 cumulative IPC: 3.996 (Simulation time: 00 hr 01 min 44 sec)
Warmup complete CPU 0 instructions: 25000001 cycles: 6255480 cumulative IPC: 3.996 (Simulation time: 00 hr 01 min 44 sec)
Heartbeat CPU 0 instructions: 30000002 cycles: 18785192 heartbeat IPC: 0.7256 cumulative IPC: 0.3991 (Simulation time: 00 hr 02 min 53 sec)
Heartbeat CPU 0 instructions: 40000002 cycles: 43232719 heartbeat IPC: 0.409 cumulative IPC: 0.4057 (Simulation time: 00 hr 05 min 31 sec)
Heartbeat CPU 0 instructions: 50000001 cycles: 67889840 heartbeat IPC: 0.4056 cumulative IPC: 0.4056 (Simulation time: 00 hr 08 min 11 sec)
Simulation finished CPU 0 instructions: 25000000 cycles: 61634361 cumulative IPC: 0.4056 (Simulation time: 00 hr 08 min 11 sec)
Simulation complete CPU 0 instructions: 25000000 cycles: 61634361 cumulative IPC: 0.4056 (Simulation time: 00 hr 08 min 11 sec)

ChampSim completed all CPUs

=== Simulation ===
CPU 0 runs ./traces/620.omnetpp_s-874B.champsimtrace.xz
Region of Interest Statistics

CPU 0 cumulative IPC: 0.4056 instructions: 25000000 cycles: 61634361
CPU 0 Branch Prediction Accuracy: 92.93% MPKI: 14.75 Average ROB Occupancy at Mispredict: 56.86
Branch type MPKI
BRANCH_DIRECT_JUMP: 0.944
BRANCH_INDIRECT: 0.117
BRANCH_CONDITIONAL: 12.6
BRANCH_DIRECT_CALL: 0.00312
BRANCH_INDIRECT_CALL: 0.731
BRANCH_RETURN: 0.39

LLC TOTAL        ACCESS:     882411 HIT:     425389 MISS:     457022
LLC LOAD         ACCESS:     287549 HIT:     108991 MISS:     178558
LLC RFO          ACCESS:      34376 HIT:      18569 MISS:      15807
LLC PREFETCH     ACCESS:     255009 HIT:      89272 MISS:     165737
LLC WRITE        ACCESS:     199443 HIT:     199114 MISS:        329
LLC TRANSLATION  ACCESS:     106034 HIT:       9443 MISS:      96591
LLC PREFETCH REQUESTED:          0 ISSUED:          0 USEFUL:          0 USELESS:          0
LLC AVERAGE MISS LATENCY: 373 cycles
cpu0_DTLB TOTAL        ACCESS:    7864496 HIT:    7258106 MISS:     606390
cpu0_DTLB LOAD         ACCESS:    7864496 HIT:    7258106 MISS:     606390
cpu0_DTLB RFO          ACCESS:          0 HIT:          0 MISS:          0
cpu0_DTLB PREFETCH     ACCESS:          0 HIT:          0 MISS:          0
cpu0_DTLB WRITE        ACCESS:          0 HIT:          0 MISS:          0
cpu0_DTLB TRANSLATION  ACCESS:          0 HIT:          0 MISS:          0
cpu0_DTLB PREFETCH REQUESTED:          0 ISSUED:          0 USEFUL:          0 USELESS:          0
cpu0_DTLB AVERAGE MISS LATENCY: 74.83 cycles
cpu0_ITLB TOTAL        ACCESS:    2032005 HIT:    1974954 MISS:      57051
cpu0_ITLB LOAD         ACCESS:    2032005 HIT:    1974954 MISS:      57051
cpu0_ITLB RFO          ACCESS:          0 HIT:          0 MISS:          0
cpu0_ITLB PREFETCH     ACCESS:          0 HIT:          0 MISS:          0
cpu0_ITLB WRITE        ACCESS:          0 HIT:          0 MISS:          0
cpu0_ITLB TRANSLATION  ACCESS:          0 HIT:          0 MISS:          0
cpu0_ITLB PREFETCH REQUESTED:          0 ISSUED:          0 USEFUL:          0 USELESS:          0
cpu0_ITLB AVERAGE MISS LATENCY: 5.516 cycles
cpu0_L1D TOTAL        ACCESS:   14701086 HIT:   13070122 MISS:    1630964
cpu0_L1D LOAD         ACCESS:    5562765 HIT:    4881500 MISS:     681265
cpu0_L1D RFO          ACCESS:          0 HIT:          0 MISS:          0
cpu0_L1D PREFETCH     ACCESS:    4378757 HIT:    3729978 MISS:     648779
cpu0_L1D WRITE        ACCESS:    4606233 HIT:    4447335 MISS:     158898
cpu0_L1D TRANSLATION  ACCESS:     153331 HIT:      11309 MISS:     142022
cpu0_L1D PREFETCH REQUESTED:    5577659 ISSUED:    4378753 USEFUL:      93830 USELESS:     286025
cpu0_L1D AVERAGE MISS LATENCY: 114.7 cycles
cpu0_L1I TOTAL        ACCESS:    2223406 HIT:    2210692 MISS:      12714
cpu0_L1I LOAD         ACCESS:    2223406 HIT:    2210692 MISS:      12714
cpu0_L1I RFO          ACCESS:          0 HIT:          0 MISS:          0
cpu0_L1I PREFETCH     ACCESS:          0 HIT:          0 MISS:          0
cpu0_L1I WRITE        ACCESS:          0 HIT:          0 MISS:          0
cpu0_L1I TRANSLATION  ACCESS:          0 HIT:          0 MISS:          0
cpu0_L1I PREFETCH REQUESTED:          0 ISSUED:          0 USEFUL:          0 USELESS:          0
cpu0_L1I AVERAGE MISS LATENCY: 26.1 cycles
cpu0_L2C TOTAL        ACCESS:    1285899 HIT:     601450 MISS:     684449
cpu0_L2C LOAD         ACCESS:     448089 HIT:     160529 MISS:     287560
cpu0_L2C RFO          ACCESS:      42012 HIT:       7636 MISS:      34376
cpu0_L2C PREFETCH     ACCESS:     384794 HIT:     129764 MISS:     255030
cpu0_L2C WRITE        ACCESS:     269227 HIT:     267777 MISS:       1450
cpu0_L2C TRANSLATION  ACCESS:     141777 HIT:      35744 MISS:     106033
cpu0_L2C PREFETCH REQUESTED:       4883 ISSUED:       4883 USEFUL:        936 USELESS:       3334
cpu0_L2C AVERAGE MISS LATENCY: 269.7 cycles
cpu0_STLB TOTAL        ACCESS:     508459 HIT:     398188 MISS:     110271
cpu0_STLB LOAD         ACCESS:     508459 HIT:     398188 MISS:     110271
cpu0_STLB RFO          ACCESS:          0 HIT:          0 MISS:          0
cpu0_STLB PREFETCH     ACCESS:          0 HIT:          0 MISS:          0
cpu0_STLB WRITE        ACCESS:          0 HIT:          0 MISS:          0
cpu0_STLB TRANSLATION  ACCESS:          0 HIT:          0 MISS:          0
cpu0_STLB PREFETCH REQUESTED:          0 ISSUED:          0 USEFUL:          0 USELESS:          0
cpu0_STLB AVERAGE MISS LATENCY: 389.1 cycles

DRAM Statistics

Channel 0 RQ ROW_BUFFER_HIT:      44106
  ROW_BUFFER_MISS:     412495
 AVG DBUS CONGESTED CYCLE: 3.943
WQ ROW_BUFFER_HIT: Channel 0 
  ROW_BUFFER_MISS:       3114
  FULL:     109020
