WARNING: physical memory size is smaller than virtual memory size.

*** ChampSim Multicore Out-of-Order Simulator ***
Warmup Instructions: 25000000
Simulation Instructions: 25000000
Number of CPUs: 1
Page size: 4096

Off-chip DRAM Size: 4 GiB Channels: 1 Width: 64-bit Data Race: 800 MT/s
Heartbeat CPU 0 instructions: 10000002 cycles: 2503315 heartbeat IPC: 3.995 cumulative IPC: 3.995 (Simulation time: 00 hr 00 min 37 sec)
Heartbeat CPU 0 instructions: 20000002 cycles: 5007287 heartbeat IPC: 3.994 cumulative IPC: 3.994 (Simulation time: 00 hr 01 min 22 sec)
Warmup finished CPU 0 instructions: 25000003 cycles: 6259737 cumulative IPC: 3.994 (Simulation time: 00 hr 01 min 40 sec)
Warmup complete CPU 0 instructions: 25000003 cycles: 6259737 cumulative IPC: 3.994 (Simulation time: 00 hr 01 min 40 sec)
Heartbeat CPU 0 instructions: 30000003 cycles: 19925240 heartbeat IPC: 0.6703 cumulative IPC: 0.3659 (Simulation time: 00 hr 03 min 12 sec)
Heartbeat CPU 0 instructions: 40000001 cycles: 47754015 heartbeat IPC: 0.3593 cumulative IPC: 0.3615 (Simulation time: 00 hr 06 min 11 sec)
Heartbeat CPU 0 instructions: 50000000 cycles: 75946830 heartbeat IPC: 0.3547 cumulative IPC: 0.3587 (Simulation time: 00 hr 09 min 30 sec)
Simulation finished CPU 0 instructions: 25000000 cycles: 69687105 cumulative IPC: 0.3587 (Simulation time: 00 hr 09 min 30 sec)
Simulation complete CPU 0 instructions: 25000000 cycles: 69687105 cumulative IPC: 0.3587 (Simulation time: 00 hr 09 min 30 sec)

ChampSim completed all CPUs

=== Simulation ===
CPU 0 runs ./traces/620.omnetpp_s-141B.champsimtrace.xz
Region of Interest Statistics

CPU 0 cumulative IPC: 0.3587 instructions: 25000000 cycles: 69687105
CPU 0 Branch Prediction Accuracy: 91.43% MPKI: 18.03 Average ROB Occupancy at Mispredict: 50.2
Branch type MPKI
BRANCH_DIRECT_JUMP: 0.836
BRANCH_INDIRECT: 0.351
BRANCH_CONDITIONAL: 15.5
BRANCH_DIRECT_CALL: 0.00252
BRANCH_INDIRECT_CALL: 0.858
BRANCH_RETURN: 0.445

LLC TOTAL        ACCESS:     915071 HIT:     398233 MISS:     516838
LLC LOAD         ACCESS:     297233 HIT:      95825 MISS:     201408
LLC RFO          ACCESS:      30731 HIT:      12754 MISS:      17977
LLC PREFETCH     ACCESS:     266349 HIT:      80411 MISS:     185938
LLC WRITE        ACCESS:     199207 HIT:     198836 MISS:        371
LLC TRANSLATION  ACCESS:     121551 HIT:      10407 MISS:     111144
LLC PREFETCH REQUESTED:          0 ISSUED:          0 USEFUL:          0 USELESS:          0
LLC AVERAGE MISS LATENCY: 377.7 cycles
cpu0_DTLB TOTAL        ACCESS:    8044415 HIT:    7408455 MISS:     635960
cpu0_DTLB LOAD         ACCESS:    8044415 HIT:    7408455 MISS:     635960
cpu0_DTLB RFO          ACCESS:          0 HIT:          0 MISS:          0
cpu0_DTLB PREFETCH     ACCESS:          0 HIT:          0 MISS:          0
cpu0_DTLB WRITE        ACCESS:          0 HIT:          0 MISS:          0
cpu0_DTLB TRANSLATION  ACCESS:          0 HIT:          0 MISS:          0
cpu0_DTLB PREFETCH REQUESTED:          0 ISSUED:          0 USEFUL:          0 USELESS:          0
cpu0_DTLB AVERAGE MISS LATENCY: 83.2 cycles
cpu0_ITLB TOTAL        ACCESS:    1966073 HIT:    1910090 MISS:      55983
cpu0_ITLB LOAD         ACCESS:    1966073 HIT:    1910090 MISS:      55983
cpu0_ITLB RFO          ACCESS:          0 HIT:          0 MISS:          0
cpu0_ITLB PREFETCH     ACCESS:          0 HIT:          0 MISS:          0
cpu0_ITLB WRITE        ACCESS:          0 HIT:          0 MISS:          0
cpu0_ITLB TRANSLATION  ACCESS:          0 HIT:          0 MISS:          0
cpu0_ITLB PREFETCH REQUESTED:          0 ISSUED:          0 USEFUL:          0 USELESS:          0
cpu0_ITLB AVERAGE MISS LATENCY: 4.668 cycles
cpu0_L1D TOTAL        ACCESS:   15135421 HIT:   13460976 MISS:    1674445
cpu0_L1D LOAD         ACCESS:    5665011 HIT:    4974019 MISS:     690992
cpu0_L1D RFO          ACCESS:          0 HIT:          0 MISS:          0
cpu0_L1D PREFETCH     ACCESS:    4704057 HIT:    4021273 MISS:     682784
cpu0_L1D WRITE        ACCESS:    4591529 HIT:    4451758 MISS:     139771
cpu0_L1D TRANSLATION  ACCESS:     174824 HIT:      13926 MISS:     160898
cpu0_L1D PREFETCH REQUESTED:    5759550 ISSUED:    4704049 USEFUL:      96559 USELESS:     317623
cpu0_L1D AVERAGE MISS LATENCY: 126.9 cycles
cpu0_L1I TOTAL        ACCESS:    2152412 HIT:    2134251 MISS:      18161
cpu0_L1I LOAD         ACCESS:    2152412 HIT:    2134251 MISS:      18161
cpu0_L1I RFO          ACCESS:          0 HIT:          0 MISS:          0
cpu0_L1I PREFETCH     ACCESS:          0 HIT:          0 MISS:          0
cpu0_L1I WRITE        ACCESS:          0 HIT:          0 MISS:          0
cpu0_L1I TRANSLATION  ACCESS:          0 HIT:          0 MISS:          0
cpu0_L1I PREFETCH REQUESTED:          0 ISSUED:          0 USEFUL:          0 USELESS:          0
cpu0_L1I AVERAGE MISS LATENCY: 24.32 cycles
cpu0_L2C TOTAL        ACCESS:    1373576 HIT:     656317 MISS:     717259
cpu0_L2C LOAD         ACCESS:     480491 HIT:     183256 MISS:     297235
cpu0_L2C RFO          ACCESS:      40100 HIT:       9369 MISS:      30731
cpu0_L2C PREFETCH     ACCESS:     418071 HIT:     151705 MISS:     266366
cpu0_L2C WRITE        ACCESS:     274267 HIT:     272891 MISS:       1376
cpu0_L2C TRANSLATION  ACCESS:     160647 HIT:      39096 MISS:     121551
cpu0_L2C PREFETCH REQUESTED:       3830 ISSUED:       3830 USEFUL:        624 USELESS:       2895
cpu0_L2C AVERAGE MISS LATENCY: 292.9 cycles
cpu0_STLB TOTAL        ACCESS:     538174 HIT:     414459 MISS:     123715
cpu0_STLB LOAD         ACCESS:     538174 HIT:     414459 MISS:     123715
cpu0_STLB RFO          ACCESS:          0 HIT:          0 MISS:          0
cpu0_STLB PREFETCH     ACCESS:          0 HIT:          0 MISS:          0
cpu0_STLB WRITE        ACCESS:          0 HIT:          0 MISS:          0
cpu0_STLB TRANSLATION  ACCESS:          0 HIT:          0 MISS:          0
cpu0_STLB PREFETCH REQUESTED:          0 ISSUED:          0 USEFUL:          0 USELESS:          0
cpu0_STLB AVERAGE MISS LATENCY: 406 cycles

DRAM Statistics

Channel 0 RQ ROW_BUFFER_HIT:      41547
  ROW_BUFFER_MISS:     474863
 AVG DBUS CONGESTED CYCLE: 3.945
WQ ROW_BUFFER_HIT: Channel 0 
  ROW_BUFFER_MISS:       3513
  FULL:     122499
