WARNING: physical memory size is smaller than virtual memory size.

*** ChampSim Multicore Out-of-Order Simulator ***
Warmup Instructions: 25000000
Simulation Instructions: 25000000
Number of CPUs: 1
Page size: 4096

Off-chip DRAM Size: 4 GiB Channels: 1 Width: 64-bit Data Race: 800 MT/s
Heartbeat CPU 0 instructions: 10000003 cycles: 2500092 heartbeat IPC: 4 cumulative IPC: 4 (Simulation time: 00 hr 00 min 27 sec)
Heartbeat CPU 0 instructions: 20000003 cycles: 5002128 heartbeat IPC: 3.997 cumulative IPC: 3.998 (Simulation time: 00 hr 00 min 53 sec)
Warmup finished CPU 0 instructions: 25000003 cycles: 6252184 cumulative IPC: 3.999 (Simulation time: 00 hr 01 min 06 sec)
Warmup complete CPU 0 instructions: 25000003 cycles: 6252184 cumulative IPC: 3.999 (Simulation time: 00 hr 01 min 06 sec)
Heartbeat CPU 0 instructions: 30000003 cycles: 10189895 heartbeat IPC: 1.928 cumulative IPC: 1.27 (Simulation time: 00 hr 01 min 38 sec)
Heartbeat CPU 0 instructions: 40000000 cycles: 47705166 heartbeat IPC: 0.2666 cumulative IPC: 0.3619 (Simulation time: 00 hr 07 min 11 sec)
Heartbeat CPU 0 instructions: 50000003 cycles: 69458453 heartbeat IPC: 0.4597 cumulative IPC: 0.3955 (Simulation time: 00 hr 10 min 30 sec)
Simulation finished CPU 0 instructions: 25000000 cycles: 63206270 cumulative IPC: 0.3955 (Simulation time: 00 hr 10 min 30 sec)
Simulation complete CPU 0 instructions: 25000000 cycles: 63206270 cumulative IPC: 0.3955 (Simulation time: 00 hr 10 min 30 sec)

ChampSim completed all CPUs

=== Simulation ===
CPU 0 runs ./traces/621.wrf_s-6673B.champsimtrace.xz
Region of Interest Statistics

CPU 0 cumulative IPC: 0.3955 instructions: 25000000 cycles: 63206270
CPU 0 Branch Prediction Accuracy: 96.82% MPKI: 2.139 Average ROB Occupancy at Mispredict: 293
Branch type MPKI
BRANCH_DIRECT_JUMP: 0.00072
BRANCH_INDIRECT: 0
BRANCH_CONDITIONAL: 2.12
BRANCH_DIRECT_CALL: 0.00672
BRANCH_INDIRECT_CALL: 0
BRANCH_RETURN: 0.0062

LLC TOTAL        ACCESS:     954575 HIT:     295284 MISS:     659291
LLC LOAD         ACCESS:     172819 HIT:      18501 MISS:     154318
LLC RFO          ACCESS:     135142 HIT:       9091 MISS:     126051
LLC PREFETCH     ACCESS:     399909 HIT:      23671 MISS:     376238
LLC WRITE        ACCESS:     245782 HIT:     243778 MISS:       2004
LLC TRANSLATION  ACCESS:        923 HIT:        243 MISS:        680
LLC PREFETCH REQUESTED:          0 ISSUED:          0 USEFUL:          0 USELESS:          0
LLC AVERAGE MISS LATENCY: 1283 cycles
cpu0_DTLB TOTAL        ACCESS:    6191323 HIT:    6122857 MISS:      68466
cpu0_DTLB LOAD         ACCESS:    6191323 HIT:    6122857 MISS:      68466
cpu0_DTLB RFO          ACCESS:          0 HIT:          0 MISS:          0
cpu0_DTLB PREFETCH     ACCESS:          0 HIT:          0 MISS:          0
cpu0_DTLB WRITE        ACCESS:          0 HIT:          0 MISS:          0
cpu0_DTLB TRANSLATION  ACCESS:          0 HIT:          0 MISS:          0
cpu0_DTLB PREFETCH REQUESTED:          0 ISSUED:          0 USEFUL:          0 USELESS:          0
cpu0_DTLB AVERAGE MISS LATENCY: 29.08 cycles
cpu0_ITLB TOTAL        ACCESS:       7192 HIT:       7085 MISS:        107
cpu0_ITLB LOAD         ACCESS:       7192 HIT:       7085 MISS:        107
cpu0_ITLB RFO          ACCESS:          0 HIT:          0 MISS:          0
cpu0_ITLB PREFETCH     ACCESS:          0 HIT:          0 MISS:          0
cpu0_ITLB WRITE        ACCESS:          0 HIT:          0 MISS:          0
cpu0_ITLB TRANSLATION  ACCESS:          0 HIT:          0 MISS:          0
cpu0_ITLB PREFETCH REQUESTED:          0 ISSUED:          0 USEFUL:          0 USELESS:          0
cpu0_ITLB AVERAGE MISS LATENCY: 229.4 cycles
cpu0_L1D TOTAL        ACCESS:   10350518 HIT:    6480901 MISS:    3869617
cpu0_L1D LOAD         ACCESS:    5504410 HIT:    3733499 MISS:    1770911
cpu0_L1D RFO          ACCESS:          0 HIT:          0 MISS:          0
cpu0_L1D PREFETCH     ACCESS:    2974032 HIT:    1683775 MISS:    1290257
cpu0_L1D WRITE        ACCESS:    1864208 HIT:    1059452 MISS:     804756
cpu0_L1D TRANSLATION  ACCESS:       7868 HIT:       4175 MISS:       3693
cpu0_L1D PREFETCH REQUESTED:   17144984 ISSUED:    2974036 USEFUL:     298274 USELESS:      22680
cpu0_L1D AVERAGE MISS LATENCY: 151 cycles
cpu0_L1I TOTAL        ACCESS:       9439 HIT:       7775 MISS:       1664
cpu0_L1I LOAD         ACCESS:       9439 HIT:       7775 MISS:       1664
cpu0_L1I RFO          ACCESS:          0 HIT:          0 MISS:          0
cpu0_L1I PREFETCH     ACCESS:          0 HIT:          0 MISS:          0
cpu0_L1I WRITE        ACCESS:          0 HIT:          0 MISS:          0
cpu0_L1I TRANSLATION  ACCESS:          0 HIT:          0 MISS:          0
cpu0_L1I PREFETCH REQUESTED:          0 ISSUED:          0 USEFUL:          0 USELESS:          0
cpu0_L1I AVERAGE MISS LATENCY: 457.4 cycles
cpu0_L2C TOTAL        ACCESS:    1240633 HIT:     488442 MISS:     752191
cpu0_L2C LOAD         ACCESS:     229289 HIT:      45404 MISS:     183885
cpu0_L2C RFO          ACCESS:     162220 HIT:      27059 MISS:     135161
cpu0_L2C PREFETCH     ACCESS:     543803 HIT:     111668 MISS:     432135
cpu0_L2C WRITE        ACCESS:     301948 HIT:     301861 MISS:         87
cpu0_L2C TRANSLATION  ACCESS:       3373 HIT:       2450 MISS:        923
cpu0_L2C PREFETCH REQUESTED:     222853 ISSUED:     222852 USEFUL:      26128 USELESS:      10425
cpu0_L2C AVERAGE MISS LATENCY: 1037 cycles
cpu0_STLB TOTAL        ACCESS:      23577 HIT:      15674 MISS:       7903
cpu0_STLB LOAD         ACCESS:      23577 HIT:      15674 MISS:       7903
cpu0_STLB RFO          ACCESS:          0 HIT:          0 MISS:          0
cpu0_STLB PREFETCH     ACCESS:          0 HIT:          0 MISS:          0
cpu0_STLB WRITE        ACCESS:          0 HIT:          0 MISS:          0
cpu0_STLB TRANSLATION  ACCESS:          0 HIT:          0 MISS:          0
cpu0_STLB PREFETCH REQUESTED:          0 ISSUED:          0 USEFUL:          0 USELESS:          0
cpu0_STLB AVERAGE MISS LATENCY: 359.8 cycles

DRAM Statistics

Channel 0 RQ ROW_BUFFER_HIT:     167609
  ROW_BUFFER_MISS:     390088
 AVG DBUS CONGESTED CYCLE: 3.93
WQ ROW_BUFFER_HIT: Channel 0 
  ROW_BUFFER_MISS:       6958
  FULL:     235020
