WARNING: physical memory size is smaller than virtual memory size.

*** ChampSim Multicore Out-of-Order Simulator ***
Warmup Instructions: 25000000
Simulation Instructions: 25000000
Number of CPUs: 1
Page size: 4096

Off-chip DRAM Size: 4 GiB Channels: 1 Width: 64-bit Data Race: 800 MT/s
Heartbeat CPU 0 instructions: 10000000 cycles: 2605651 heartbeat IPC: 3.838 cumulative IPC: 3.838 (Simulation time: 00 hr 00 min 31 sec)
Heartbeat CPU 0 instructions: 20000000 cycles: 5105651 heartbeat IPC: 4 cumulative IPC: 3.917 (Simulation time: 00 hr 01 min 00 sec)
Warmup finished CPU 0 instructions: 25000000 cycles: 6355652 cumulative IPC: 3.934 (Simulation time: 00 hr 01 min 14 sec)
Warmup complete CPU 0 instructions: 25000000 cycles: 6355652 cumulative IPC: 3.934 (Simulation time: 00 hr 01 min 14 sec)
Heartbeat CPU 0 instructions: 30000000 cycles: 11079379 heartbeat IPC: 1.674 cumulative IPC: 1.058 (Simulation time: 00 hr 02 min 10 sec)
Heartbeat CPU 0 instructions: 40000001 cycles: 20785313 heartbeat IPC: 1.03 cumulative IPC: 1.04 (Simulation time: 00 hr 04 min 20 sec)
Heartbeat CPU 0 instructions: 50000001 cycles: 25772272 heartbeat IPC: 2.005 cumulative IPC: 1.288 (Simulation time: 00 hr 05 min 25 sec)
Simulation finished CPU 0 instructions: 25000001 cycles: 19416621 cumulative IPC: 1.288 (Simulation time: 00 hr 05 min 25 sec)
Simulation complete CPU 0 instructions: 25000001 cycles: 19416621 cumulative IPC: 1.288 (Simulation time: 00 hr 05 min 25 sec)

ChampSim completed all CPUs

=== Simulation ===
CPU 0 runs ./traces/621.wrf_s-8065B.champsimtrace.xz
Region of Interest Statistics

CPU 0 cumulative IPC: 1.288 instructions: 25000001 cycles: 19416621
CPU 0 Branch Prediction Accuracy: 95.11% MPKI: 1.601 Average ROB Occupancy at Mispredict: 226.9
Branch type MPKI
BRANCH_DIRECT_JUMP: 0.00028
BRANCH_INDIRECT: 0
BRANCH_CONDITIONAL: 1.6
BRANCH_DIRECT_CALL: 0.00096
BRANCH_INDIRECT_CALL: 0
BRANCH_RETURN: 0.00104

LLC TOTAL        ACCESS:     430999 HIT:     268862 MISS:     162137
LLC LOAD         ACCESS:      63483 HIT:      39816 MISS:      23667
LLC RFO          ACCESS:      76678 HIT:      23478 MISS:      53200
LLC PREFETCH     ACCESS:     152020 HIT:      70171 MISS:      81849
LLC WRITE        ACCESS:     138610 HIT:     135370 MISS:       3240
LLC TRANSLATION  ACCESS:        208 HIT:         27 MISS:        181
LLC PREFETCH REQUESTED:          0 ISSUED:          0 USEFUL:          0 USELESS:          0
LLC AVERAGE MISS LATENCY: 767.7 cycles
cpu0_DTLB TOTAL        ACCESS:    5964678 HIT:    5926174 MISS:      38504
cpu0_DTLB LOAD         ACCESS:    5964678 HIT:    5926174 MISS:      38504
cpu0_DTLB RFO          ACCESS:          0 HIT:          0 MISS:          0
cpu0_DTLB PREFETCH     ACCESS:          0 HIT:          0 MISS:          0
cpu0_DTLB WRITE        ACCESS:          0 HIT:          0 MISS:          0
cpu0_DTLB TRANSLATION  ACCESS:          0 HIT:          0 MISS:          0
cpu0_DTLB PREFETCH REQUESTED:          0 ISSUED:          0 USEFUL:          0 USELESS:          0
cpu0_DTLB AVERAGE MISS LATENCY: 11.52 cycles
cpu0_ITLB TOTAL        ACCESS:       1835 HIT:       1745 MISS:         90
cpu0_ITLB LOAD         ACCESS:       1835 HIT:       1745 MISS:         90
cpu0_ITLB RFO          ACCESS:          0 HIT:          0 MISS:          0
cpu0_ITLB PREFETCH     ACCESS:          0 HIT:          0 MISS:          0
cpu0_ITLB WRITE        ACCESS:          0 HIT:          0 MISS:          0
cpu0_ITLB TRANSLATION  ACCESS:          0 HIT:          0 MISS:          0
cpu0_ITLB PREFETCH REQUESTED:          0 ISSUED:          0 USEFUL:          0 USELESS:          0
cpu0_ITLB AVERAGE MISS LATENCY: 124.2 cycles
cpu0_L1D TOTAL        ACCESS:    9736669 HIT:    8088980 MISS:    1647689
cpu0_L1D LOAD         ACCESS:    6244181 HIT:    5505384 MISS:     738797
cpu0_L1D RFO          ACCESS:          0 HIT:          0 MISS:          0
cpu0_L1D PREFETCH     ACCESS:    2394678 HIT:    1875571 MISS:     519107
cpu0_L1D WRITE        ACCESS:    1095994 HIT:     707301 MISS:     388693
cpu0_L1D TRANSLATION  ACCESS:       1816 HIT:        724 MISS:       1092
cpu0_L1D PREFETCH REQUESTED:    6501763 ISSUED:    2394687 USEFUL:     194229 USELESS:       8624
cpu0_L1D AVERAGE MISS LATENCY: 64.86 cycles
cpu0_L1I TOTAL        ACCESS:       2311 HIT:        531 MISS:       1780
cpu0_L1I LOAD         ACCESS:       2311 HIT:        531 MISS:       1780
cpu0_L1I RFO          ACCESS:          0 HIT:          0 MISS:          0
cpu0_L1I PREFETCH     ACCESS:          0 HIT:          0 MISS:          0
cpu0_L1I WRITE        ACCESS:          0 HIT:          0 MISS:          0
cpu0_L1I TRANSLATION  ACCESS:          0 HIT:          0 MISS:          0
cpu0_L1I PREFETCH REQUESTED:          0 ISSUED:          0 USEFUL:          0 USELESS:          0
cpu0_L1I AVERAGE MISS LATENCY: 308.1 cycles
cpu0_L2C TOTAL        ACCESS:     694289 HIT:     352313 MISS:     341976
cpu0_L2C LOAD         ACCESS:     131452 HIT:      58683 MISS:      72769
cpu0_L2C RFO          ACCESS:      84556 HIT:       7878 MISS:      76678
cpu0_L2C PREFETCH     ACCESS:     317801 HIT:     125568 MISS:     192233
cpu0_L2C WRITE        ACCESS:     159421 HIT:     159333 MISS:         88
cpu0_L2C TRANSLATION  ACCESS:       1059 HIT:        851 MISS:        208
cpu0_L2C PREFETCH REQUESTED:     114965 ISSUED:     114965 USEFUL:      44329 USELESS:       9419
cpu0_L2C AVERAGE MISS LATENCY: 377.7 cycles
cpu0_STLB TOTAL        ACCESS:      25158 HIT:      23349 MISS:       1809
cpu0_STLB LOAD         ACCESS:      25158 HIT:      23349 MISS:       1809
cpu0_STLB RFO          ACCESS:          0 HIT:          0 MISS:          0
cpu0_STLB PREFETCH     ACCESS:          0 HIT:          0 MISS:          0
cpu0_STLB WRITE        ACCESS:          0 HIT:          0 MISS:          0
cpu0_STLB TRANSLATION  ACCESS:          0 HIT:          0 MISS:          0
cpu0_STLB PREFETCH REQUESTED:          0 ISSUED:          0 USEFUL:          0 USELESS:          0
cpu0_STLB AVERAGE MISS LATENCY: 222.9 cycles

DRAM Statistics

Channel 0 RQ ROW_BUFFER_HIT:      47751
  ROW_BUFFER_MISS:     110027
 AVG DBUS CONGESTED CYCLE: 3.928
WQ ROW_BUFFER_HIT: Channel 0 
  ROW_BUFFER_MISS:       4934
  FULL:      73403
