WARNING: physical memory size is smaller than virtual memory size.

*** ChampSim Multicore Out-of-Order Simulator ***
Warmup Instructions: 25000000
Simulation Instructions: 25000000
Number of CPUs: 1
Page size: 4096

Off-chip DRAM Size: 4 GiB Channels: 1 Width: 64-bit Data Race: 800 MT/s
Heartbeat CPU 0 instructions: 10000003 cycles: 2500088 heartbeat IPC: 4 cumulative IPC: 4 (Simulation time: 00 hr 00 min 53 sec)
Heartbeat CPU 0 instructions: 20000003 cycles: 5000088 heartbeat IPC: 4 cumulative IPC: 4 (Simulation time: 00 hr 01 min 44 sec)
Warmup finished CPU 0 instructions: 25000003 cycles: 6250089 cumulative IPC: 4 (Simulation time: 00 hr 02 min 03 sec)
Warmup complete CPU 0 instructions: 25000003 cycles: 6250089 cumulative IPC: 4 (Simulation time: 00 hr 02 min 03 sec)
Heartbeat CPU 0 instructions: 30000000 cycles: 10017807 heartbeat IPC: 1.993 cumulative IPC: 1.327 (Simulation time: 00 hr 02 min 30 sec)
Heartbeat CPU 0 instructions: 40000001 cycles: 20829417 heartbeat IPC: 0.9249 cumulative IPC: 1.029 (Simulation time: 00 hr 03 min 37 sec)
Heartbeat CPU 0 instructions: 50000002 cycles: 30732132 heartbeat IPC: 1.01 cumulative IPC: 1.021 (Simulation time: 00 hr 04 min 55 sec)
Simulation finished CPU 0 instructions: 25000003 cycles: 24482045 cumulative IPC: 1.021 (Simulation time: 00 hr 04 min 55 sec)
Simulation complete CPU 0 instructions: 25000003 cycles: 24482045 cumulative IPC: 1.021 (Simulation time: 00 hr 04 min 55 sec)

ChampSim completed all CPUs

=== Simulation ===
CPU 0 runs ./traces/623.xalancbmk_s-202B.champsimtrace.xz
Region of Interest Statistics

CPU 0 cumulative IPC: 1.021 instructions: 25000003 cycles: 24482045
CPU 0 Branch Prediction Accuracy: 95.19% MPKI: 13.3 Average ROB Occupancy at Mispredict: 44.41
Branch type MPKI
BRANCH_DIRECT_JUMP: 0
BRANCH_INDIRECT: 0
BRANCH_CONDITIONAL: 13.3
BRANCH_DIRECT_CALL: 0
BRANCH_INDIRECT_CALL: 0
BRANCH_RETURN: 0

LLC TOTAL        ACCESS:     674135 HIT:     265296 MISS:     408839
LLC LOAD         ACCESS:      84551 HIT:      36045 MISS:      48506
LLC RFO          ACCESS:          0 HIT:          0 MISS:          0
LLC PREFETCH     ACCESS:     589554 HIT:     229251 MISS:     360303
LLC WRITE        ACCESS:          0 HIT:          0 MISS:          0
LLC TRANSLATION  ACCESS:         30 HIT:          0 MISS:         30
LLC PREFETCH REQUESTED:          0 ISSUED:          0 USEFUL:          0 USELESS:          0
LLC AVERAGE MISS LATENCY: 350.4 cycles
cpu0_DTLB TOTAL        ACCESS:    5681054 HIT:    5634537 MISS:      46517
cpu0_DTLB LOAD         ACCESS:    5681054 HIT:    5634537 MISS:      46517
cpu0_DTLB RFO          ACCESS:          0 HIT:          0 MISS:          0
cpu0_DTLB PREFETCH     ACCESS:          0 HIT:          0 MISS:          0
cpu0_DTLB WRITE        ACCESS:          0 HIT:          0 MISS:          0
cpu0_DTLB TRANSLATION  ACCESS:          0 HIT:          0 MISS:          0
cpu0_DTLB PREFETCH REQUESTED:          0 ISSUED:          0 USEFUL:          0 USELESS:          0
cpu0_DTLB AVERAGE MISS LATENCY: 0.963 cycles
cpu0_ITLB TOTAL        ACCESS:          0 HIT:          0 MISS:          0
cpu0_ITLB LOAD         ACCESS:          0 HIT:          0 MISS:          0
cpu0_ITLB RFO          ACCESS:          0 HIT:          0 MISS:          0
cpu0_ITLB PREFETCH     ACCESS:          0 HIT:          0 MISS:          0
cpu0_ITLB WRITE        ACCESS:          0 HIT:          0 MISS:          0
cpu0_ITLB TRANSLATION  ACCESS:          0 HIT:          0 MISS:          0
cpu0_ITLB PREFETCH REQUESTED:          0 ISSUED:          0 USEFUL:          0 USELESS:          0
cpu0_ITLB AVERAGE MISS LATENCY: -nan cycles
cpu0_L1D TOTAL        ACCESS:   12110412 HIT:    9354549 MISS:    2755863
cpu0_L1D LOAD         ACCESS:    6742848 HIT:    5102532 MISS:    1640316
cpu0_L1D RFO          ACCESS:          0 HIT:          0 MISS:          0
cpu0_L1D PREFETCH     ACCESS:    4923830 HIT:    3808314 MISS:    1115516
cpu0_L1D WRITE        ACCESS:     443625 HIT:     443625 MISS:          0
cpu0_L1D TRANSLATION  ACCESS:        109 HIT:         78 MISS:         31
cpu0_L1D PREFETCH REQUESTED:    6743251 ISSUED:    4923822 USEFUL:     114131 USELESS:      51342
cpu0_L1D AVERAGE MISS LATENCY: 15.46 cycles
cpu0_L1I TOTAL        ACCESS:          0 HIT:          0 MISS:          0
cpu0_L1I LOAD         ACCESS:          0 HIT:          0 MISS:          0
cpu0_L1I RFO          ACCESS:          0 HIT:          0 MISS:          0
cpu0_L1I PREFETCH     ACCESS:          0 HIT:          0 MISS:          0
cpu0_L1I WRITE        ACCESS:          0 HIT:          0 MISS:          0
cpu0_L1I TRANSLATION  ACCESS:          0 HIT:          0 MISS:          0
cpu0_L1I PREFETCH REQUESTED:          0 ISSUED:          0 USEFUL:          0 USELESS:          0
cpu0_L1I AVERAGE MISS LATENCY: -nan cycles
cpu0_L2C TOTAL        ACCESS:    1624663 HIT:     704115 MISS:     920548
cpu0_L2C LOAD         ACCESS:     514257 HIT:     353003 MISS:     161254
cpu0_L2C RFO          ACCESS:          0 HIT:          0 MISS:          0
cpu0_L2C PREFETCH     ACCESS:    1110375 HIT:     351111 MISS:     759264
cpu0_L2C WRITE        ACCESS:          0 HIT:          0 MISS:          0
cpu0_L2C TRANSLATION  ACCESS:         31 HIT:          1 MISS:         30
cpu0_L2C PREFETCH REQUESTED:     944819 ISSUED:     944819 USEFUL:     470991 USELESS:       7498
cpu0_L2C AVERAGE MISS LATENCY: 147.7 cycles
cpu0_STLB TOTAL        ACCESS:      10922 HIT:      10813 MISS:        109
cpu0_STLB LOAD         ACCESS:      10922 HIT:      10813 MISS:        109
cpu0_STLB RFO          ACCESS:          0 HIT:          0 MISS:          0
cpu0_STLB PREFETCH     ACCESS:          0 HIT:          0 MISS:          0
cpu0_STLB WRITE        ACCESS:          0 HIT:          0 MISS:          0
cpu0_STLB TRANSLATION  ACCESS:          0 HIT:          0 MISS:          0
cpu0_STLB PREFETCH REQUESTED:          0 ISSUED:          0 USEFUL:          0 USELESS:          0
cpu0_STLB AVERAGE MISS LATENCY: 295.7 cycles

DRAM Statistics

Channel 0 RQ ROW_BUFFER_HIT:     389273
  ROW_BUFFER_MISS:      18973
 AVG DBUS CONGESTED CYCLE: 3.912
WQ ROW_BUFFER_HIT: Channel 0 
  ROW_BUFFER_MISS:          0
  FULL:          0
