WARNING: physical memory size is smaller than virtual memory size.

*** ChampSim Multicore Out-of-Order Simulator ***
Warmup Instructions: 25000000
Simulation Instructions: 25000000
Number of CPUs: 1
Page size: 4096

Off-chip DRAM Size: 4 GiB Channels: 1 Width: 64-bit Data Race: 800 MT/s
Heartbeat CPU 0 instructions: 10000003 cycles: 2500186 heartbeat IPC: 4 cumulative IPC: 4 (Simulation time: 00 hr 00 min 29 sec)
Heartbeat CPU 0 instructions: 20000003 cycles: 5000186 heartbeat IPC: 4 cumulative IPC: 4 (Simulation time: 00 hr 00 min 59 sec)
Warmup finished CPU 0 instructions: 25000003 cycles: 6253624 cumulative IPC: 3.998 (Simulation time: 00 hr 01 min 15 sec)
Warmup complete CPU 0 instructions: 25000003 cycles: 6253624 cumulative IPC: 3.998 (Simulation time: 00 hr 01 min 15 sec)
Heartbeat CPU 0 instructions: 30000000 cycles: 9283210 heartbeat IPC: 2.335 cumulative IPC: 1.65 (Simulation time: 00 hr 01 min 56 sec)
Heartbeat CPU 0 instructions: 40000001 cycles: 16753366 heartbeat IPC: 1.339 cumulative IPC: 1.429 (Simulation time: 00 hr 02 min 54 sec)
Heartbeat CPU 0 instructions: 50000000 cycles: 23839104 heartbeat IPC: 1.411 cumulative IPC: 1.422 (Simulation time: 00 hr 04 min 08 sec)
Simulation finished CPU 0 instructions: 25000000 cycles: 17585493 cumulative IPC: 1.422 (Simulation time: 00 hr 04 min 08 sec)
Simulation complete CPU 0 instructions: 25000000 cycles: 17585493 cumulative IPC: 1.422 (Simulation time: 00 hr 04 min 08 sec)

ChampSim completed all CPUs

=== Simulation ===
CPU 0 runs ./traces/623.xalancbmk_s-592B.champsimtrace.xz
Region of Interest Statistics

CPU 0 cumulative IPC: 1.422 instructions: 25000000 cycles: 17585493
CPU 0 Branch Prediction Accuracy: 93.12% MPKI: 17.45 Average ROB Occupancy at Mispredict: 21.41
Branch type MPKI
BRANCH_DIRECT_JUMP: 0.18
BRANCH_INDIRECT: 0.561
BRANCH_CONDITIONAL: 13.8
BRANCH_DIRECT_CALL: 0.00256
BRANCH_INDIRECT_CALL: 0.612
BRANCH_RETURN: 2.31

LLC TOTAL        ACCESS:     873412 HIT:     807629 MISS:      65783
LLC LOAD         ACCESS:     610467 HIT:     608017 MISS:       2450
LLC RFO          ACCESS:      61185 HIT:       7351 MISS:      53834
LLC PREFETCH     ACCESS:      93831 HIT:      86553 MISS:       7278
LLC WRITE        ACCESS:      84011 HIT:      83431 MISS:        580
LLC TRANSLATION  ACCESS:      23918 HIT:      22277 MISS:       1641
LLC PREFETCH REQUESTED:          0 ISSUED:          0 USEFUL:          0 USELESS:          0
LLC AVERAGE MISS LATENCY: 454.9 cycles
cpu0_DTLB TOTAL        ACCESS:    6618106 HIT:    5603114 MISS:    1014992
cpu0_DTLB LOAD         ACCESS:    6618106 HIT:    5603114 MISS:    1014992
cpu0_DTLB RFO          ACCESS:          0 HIT:          0 MISS:          0
cpu0_DTLB PREFETCH     ACCESS:          0 HIT:          0 MISS:          0
cpu0_DTLB WRITE        ACCESS:          0 HIT:          0 MISS:          0
cpu0_DTLB TRANSLATION  ACCESS:          0 HIT:          0 MISS:          0
cpu0_DTLB PREFETCH REQUESTED:          0 ISSUED:          0 USEFUL:          0 USELESS:          0
cpu0_DTLB AVERAGE MISS LATENCY: 5.235 cycles
cpu0_ITLB TOTAL        ACCESS:    1456422 HIT:    1418495 MISS:      37927
cpu0_ITLB LOAD         ACCESS:    1456422 HIT:    1418495 MISS:      37927
cpu0_ITLB RFO          ACCESS:          0 HIT:          0 MISS:          0
cpu0_ITLB PREFETCH     ACCESS:          0 HIT:          0 MISS:          0
cpu0_ITLB WRITE        ACCESS:          0 HIT:          0 MISS:          0
cpu0_ITLB TRANSLATION  ACCESS:          0 HIT:          0 MISS:          0
cpu0_ITLB PREFETCH REQUESTED:          0 ISSUED:          0 USEFUL:          0 USELESS:          0
cpu0_ITLB AVERAGE MISS LATENCY: 3.174 cycles
cpu0_L1D TOTAL        ACCESS:   11994125 HIT:    8526051 MISS:    3468074
cpu0_L1D LOAD         ACCESS:    5252642 HIT:    3088549 MISS:    2164093
cpu0_L1D RFO          ACCESS:          0 HIT:          0 MISS:          0
cpu0_L1D PREFETCH     ACCESS:    3895073 HIT:    2900010 MISS:     995063
cpu0_L1D WRITE        ACCESS:    2808855 HIT:    2536499 MISS:     272356
cpu0_L1D TRANSLATION  ACCESS:      37555 HIT:        993 MISS:      36562
cpu0_L1D PREFETCH REQUESTED:    5866491 ISSUED:    3895072 USEFUL:      65870 USELESS:     160282
cpu0_L1D AVERAGE MISS LATENCY: 17.33 cycles
cpu0_L1I TOTAL        ACCESS:    1588801 HIT:    1444503 MISS:     144298
cpu0_L1I LOAD         ACCESS:    1588801 HIT:    1444503 MISS:     144298
cpu0_L1I RFO          ACCESS:          0 HIT:          0 MISS:          0
cpu0_L1I PREFETCH     ACCESS:          0 HIT:          0 MISS:          0
cpu0_L1I WRITE        ACCESS:          0 HIT:          0 MISS:          0
cpu0_L1I TRANSLATION  ACCESS:          0 HIT:          0 MISS:          0
cpu0_L1I PREFETCH REQUESTED:          0 ISSUED:          0 USEFUL:          0 USELESS:          0
cpu0_L1I AVERAGE MISS LATENCY: 8.891 cycles
cpu0_L2C TOTAL        ACCESS:    2071110 HIT:    1244986 MISS:     826124
cpu0_L2C LOAD         ACCESS:    1370082 HIT:     750114 MISS:     619968
cpu0_L2C RFO          ACCESS:      70847 HIT:       9607 MISS:      61240
cpu0_L2C PREFETCH     ACCESS:     478682 HIT:     357701 MISS:     120981
cpu0_L2C WRITE        ACCESS:     114959 HIT:     114942 MISS:         17
cpu0_L2C TRANSLATION  ACCESS:      36540 HIT:      12622 MISS:      23918
cpu0_L2C PREFETCH REQUESTED:     252756 ISSUED:     252605 USEFUL:      13481 USELESS:       3760
cpu0_L2C AVERAGE MISS LATENCY: 55.24 cycles
cpu0_STLB TOTAL        ACCESS:     621030 HIT:     583658 MISS:      37372
cpu0_STLB LOAD         ACCESS:     621030 HIT:     583658 MISS:      37372
cpu0_STLB RFO          ACCESS:          0 HIT:          0 MISS:          0
cpu0_STLB PREFETCH     ACCESS:          0 HIT:          0 MISS:          0
cpu0_STLB WRITE        ACCESS:          0 HIT:          0 MISS:          0
cpu0_STLB TRANSLATION  ACCESS:          0 HIT:          0 MISS:          0
cpu0_STLB PREFETCH REQUESTED:          0 ISSUED:          0 USEFUL:          0 USELESS:          0
cpu0_STLB AVERAGE MISS LATENCY: 46.06 cycles

DRAM Statistics

Channel 0 RQ ROW_BUFFER_HIT:      38830
  ROW_BUFFER_MISS:      26370
 AVG DBUS CONGESTED CYCLE: 3.977
WQ ROW_BUFFER_HIT: Channel 0 
  ROW_BUFFER_MISS:       3565
  FULL:      39795
