WARNING: physical memory size is smaller than virtual memory size.

*** ChampSim Multicore Out-of-Order Simulator ***
Warmup Instructions: 25000000
Simulation Instructions: 25000000
Number of CPUs: 1
Page size: 4096

Off-chip DRAM Size: 4 GiB Channels: 1 Width: 64-bit Data Race: 800 MT/s
Heartbeat CPU 0 instructions: 10000002 cycles: 2511678 heartbeat IPC: 3.981 cumulative IPC: 3.981 (Simulation time: 00 hr 00 min 33 sec)
Heartbeat CPU 0 instructions: 20000000 cycles: 5012358 heartbeat IPC: 3.999 cumulative IPC: 3.99 (Simulation time: 00 hr 00 min 59 sec)
Warmup finished CPU 0 instructions: 25000000 cycles: 6262689 cumulative IPC: 3.992 (Simulation time: 00 hr 01 min 13 sec)
Warmup complete CPU 0 instructions: 25000000 cycles: 6262689 cumulative IPC: 3.992 (Simulation time: 00 hr 01 min 13 sec)
Heartbeat CPU 0 instructions: 30000003 cycles: 7995497 heartbeat IPC: 3.352 cumulative IPC: 2.885 (Simulation time: 00 hr 01 min 32 sec)
Heartbeat CPU 0 instructions: 40000003 cycles: 11458610 heartbeat IPC: 2.888 cumulative IPC: 2.887 (Simulation time: 00 hr 02 min 25 sec)
Heartbeat CPU 0 instructions: 50000002 cycles: 14916224 heartbeat IPC: 2.892 cumulative IPC: 2.889 (Simulation time: 00 hr 03 min 03 sec)
Simulation finished CPU 0 instructions: 25000002 cycles: 8653536 cumulative IPC: 2.889 (Simulation time: 00 hr 03 min 03 sec)
Simulation complete CPU 0 instructions: 25000002 cycles: 8653536 cumulative IPC: 2.889 (Simulation time: 00 hr 03 min 03 sec)

ChampSim completed all CPUs

=== Simulation ===
CPU 0 runs ./traces/625.x264_s-20B.champsimtrace.xz
Region of Interest Statistics

CPU 0 cumulative IPC: 2.889 instructions: 25000002 cycles: 8653536
CPU 0 Branch Prediction Accuracy: 92.14% MPKI: 3.331 Average ROB Occupancy at Mispredict: 127.2
Branch type MPKI
BRANCH_DIRECT_JUMP: 0.0004
BRANCH_INDIRECT: 0.00028
BRANCH_CONDITIONAL: 3.22
BRANCH_DIRECT_CALL: 4e-05
BRANCH_INDIRECT_CALL: 0.00696
BRANCH_RETURN: 0.104

LLC TOTAL        ACCESS:      56420 HIT:      19987 MISS:      36433
LLC LOAD         ACCESS:      12611 HIT:       5916 MISS:       6695
LLC RFO          ACCESS:       9413 HIT:        389 MISS:       9024
LLC PREFETCH     ACCESS:      22612 HIT:       1979 MISS:      20633
LLC WRITE        ACCESS:      11162 HIT:      11138 MISS:         24
LLC TRANSLATION  ACCESS:        622 HIT:        565 MISS:         57
LLC PREFETCH REQUESTED:          0 ISSUED:          0 USEFUL:          0 USELESS:          0
LLC AVERAGE MISS LATENCY: 447.2 cycles
cpu0_DTLB TOTAL        ACCESS:    4293244 HIT:    4124596 MISS:     168648
cpu0_DTLB LOAD         ACCESS:    4293244 HIT:    4124596 MISS:     168648
cpu0_DTLB RFO          ACCESS:          0 HIT:          0 MISS:          0
cpu0_DTLB PREFETCH     ACCESS:          0 HIT:          0 MISS:          0
cpu0_DTLB WRITE        ACCESS:          0 HIT:          0 MISS:          0
cpu0_DTLB TRANSLATION  ACCESS:          0 HIT:          0 MISS:          0
cpu0_DTLB PREFETCH REQUESTED:          0 ISSUED:          0 USEFUL:          0 USELESS:          0
cpu0_DTLB AVERAGE MISS LATENCY: 3.968 cycles
cpu0_ITLB TOTAL        ACCESS:     565094 HIT:     565094 MISS:          0
cpu0_ITLB LOAD         ACCESS:     565094 HIT:     565094 MISS:          0
cpu0_ITLB RFO          ACCESS:          0 HIT:          0 MISS:          0
cpu0_ITLB PREFETCH     ACCESS:          0 HIT:          0 MISS:          0
cpu0_ITLB WRITE        ACCESS:          0 HIT:          0 MISS:          0
cpu0_ITLB TRANSLATION  ACCESS:          0 HIT:          0 MISS:          0
cpu0_ITLB PREFETCH REQUESTED:          0 ISSUED:          0 USEFUL:          0 USELESS:          0
cpu0_ITLB AVERAGE MISS LATENCY: -nan cycles
cpu0_L1D TOTAL        ACCESS:    7823899 HIT:    7074088 MISS:     749811
cpu0_L1D LOAD         ACCESS:    3165583 HIT:    2795349 MISS:     370234
cpu0_L1D RFO          ACCESS:          0 HIT:          0 MISS:          0
cpu0_L1D PREFETCH     ACCESS:    2116465 HIT:    1855664 MISS:     260801
cpu0_L1D WRITE        ACCESS:    2541059 HIT:    2423036 MISS:     118023
cpu0_L1D TRANSLATION  ACCESS:        792 HIT:         39 MISS:        753
cpu0_L1D PREFETCH REQUESTED:    3225063 ISSUED:    2116474 USEFUL:      16616 USELESS:      75663
cpu0_L1D AVERAGE MISS LATENCY: 23.84 cycles
cpu0_L1I TOTAL        ACCESS:     681594 HIT:     599155 MISS:      82439
cpu0_L1I LOAD         ACCESS:     681594 HIT:     599155 MISS:      82439
cpu0_L1I RFO          ACCESS:          0 HIT:          0 MISS:          0
cpu0_L1I PREFETCH     ACCESS:          0 HIT:          0 MISS:          0
cpu0_L1I WRITE        ACCESS:          0 HIT:          0 MISS:          0
cpu0_L1I TRANSLATION  ACCESS:          0 HIT:          0 MISS:          0
cpu0_L1I PREFETCH REQUESTED:          0 ISSUED:          0 USEFUL:          0 USELESS:          0
cpu0_L1I AVERAGE MISS LATENCY: 7.091 cycles
cpu0_L2C TOTAL        ACCESS:     417095 HIT:     370267 MISS:      46828
cpu0_L2C LOAD         ACCESS:     186295 HIT:     173661 MISS:      12634
cpu0_L2C RFO          ACCESS:      58640 HIT:      49227 MISS:       9413
cpu0_L2C PREFETCH     ACCESS:     100711 HIT:      76698 MISS:      24013
cpu0_L2C WRITE        ACCESS:      70711 HIT:      70565 MISS:        146
cpu0_L2C TRANSLATION  ACCESS:        738 HIT:        116 MISS:        622
cpu0_L2C PREFETCH REQUESTED:       8439 ISSUED:       8439 USEFUL:       1645 USELESS:        417
cpu0_L2C AVERAGE MISS LATENCY: 363.7 cycles
cpu0_STLB TOTAL        ACCESS:      86076 HIT:      85284 MISS:        792
cpu0_STLB LOAD         ACCESS:      86076 HIT:      85284 MISS:        792
cpu0_STLB RFO          ACCESS:          0 HIT:          0 MISS:          0
cpu0_STLB PREFETCH     ACCESS:          0 HIT:          0 MISS:          0
cpu0_STLB WRITE        ACCESS:          0 HIT:          0 MISS:          0
cpu0_STLB TRANSLATION  ACCESS:          0 HIT:          0 MISS:          0
cpu0_STLB PREFETCH REQUESTED:          0 ISSUED:          0 USEFUL:          0 USELESS:          0
cpu0_STLB AVERAGE MISS LATENCY: 290.1 cycles

DRAM Statistics

Channel 0 RQ ROW_BUFFER_HIT:      15469
  ROW_BUFFER_MISS:      20101
 AVG DBUS CONGESTED CYCLE: 3.918
WQ ROW_BUFFER_HIT: Channel 0 
  ROW_BUFFER_MISS:        732
  FULL:       7611
