WARNING: physical memory size is smaller than virtual memory size.

*** ChampSim Multicore Out-of-Order Simulator ***
Warmup Instructions: 25000000
Simulation Instructions: 25000000
Number of CPUs: 1
Page size: 4096

Off-chip DRAM Size: 4 GiB Channels: 1 Width: 64-bit Data Race: 800 MT/s
Heartbeat CPU 0 instructions: 10000002 cycles: 2558171 heartbeat IPC: 3.909 cumulative IPC: 3.909 (Simulation time: 00 hr 00 min 27 sec)
Heartbeat CPU 0 instructions: 20000003 cycles: 5121613 heartbeat IPC: 3.901 cumulative IPC: 3.905 (Simulation time: 00 hr 00 min 55 sec)
Warmup finished CPU 0 instructions: 25000001 cycles: 6398079 cumulative IPC: 3.907 (Simulation time: 00 hr 01 min 11 sec)
Warmup complete CPU 0 instructions: 25000001 cycles: 6398079 cumulative IPC: 3.907 (Simulation time: 00 hr 01 min 11 sec)
Heartbeat CPU 0 instructions: 30000001 cycles: 10635134 heartbeat IPC: 1.814 cumulative IPC: 1.18 (Simulation time: 00 hr 01 min 57 sec)
Heartbeat CPU 0 instructions: 40000000 cycles: 17057715 heartbeat IPC: 1.557 cumulative IPC: 1.407 (Simulation time: 00 hr 02 min 52 sec)
Heartbeat CPU 0 instructions: 50000003 cycles: 24456813 heartbeat IPC: 1.352 cumulative IPC: 1.384 (Simulation time: 00 hr 03 min 53 sec)
Simulation finished CPU 0 instructions: 25000002 cycles: 18058735 cumulative IPC: 1.384 (Simulation time: 00 hr 03 min 53 sec)
Simulation complete CPU 0 instructions: 25000002 cycles: 18058735 cumulative IPC: 1.384 (Simulation time: 00 hr 03 min 53 sec)

ChampSim completed all CPUs

=== Simulation ===
CPU 0 runs ./traces/627.cam4_s-490B.champsimtrace.xz
Region of Interest Statistics

CPU 0 cumulative IPC: 1.384 instructions: 25000002 cycles: 18058735
CPU 0 Branch Prediction Accuracy: 90.28% MPKI: 9.288 Average ROB Occupancy at Mispredict: 33.09
Branch type MPKI
BRANCH_DIRECT_JUMP: 0.00504
BRANCH_INDIRECT: 0
BRANCH_CONDITIONAL: 9.28
BRANCH_DIRECT_CALL: 0
BRANCH_INDIRECT_CALL: 0
BRANCH_RETURN: 0

LLC TOTAL        ACCESS:     615702 HIT:     492379 MISS:     123323
LLC LOAD         ACCESS:      73880 HIT:      59682 MISS:      14198
LLC RFO          ACCESS:     128232 HIT:      67181 MISS:      61051
LLC PREFETCH     ACCESS:     237540 HIT:     192118 MISS:      45422
LLC WRITE        ACCESS:     176019 HIT:     173396 MISS:       2623
LLC TRANSLATION  ACCESS:         31 HIT:          2 MISS:         29
LLC PREFETCH REQUESTED:          0 ISSUED:          0 USEFUL:          0 USELESS:          0
LLC AVERAGE MISS LATENCY: 966.7 cycles
cpu0_DTLB TOTAL        ACCESS:    4030991 HIT:    4008859 MISS:      22132
cpu0_DTLB LOAD         ACCESS:    4030991 HIT:    4008859 MISS:      22132
cpu0_DTLB RFO          ACCESS:          0 HIT:          0 MISS:          0
cpu0_DTLB PREFETCH     ACCESS:          0 HIT:          0 MISS:          0
cpu0_DTLB WRITE        ACCESS:          0 HIT:          0 MISS:          0
cpu0_DTLB TRANSLATION  ACCESS:          0 HIT:          0 MISS:          0
cpu0_DTLB PREFETCH REQUESTED:          0 ISSUED:          0 USEFUL:          0 USELESS:          0
cpu0_DTLB AVERAGE MISS LATENCY: 4.692 cycles
cpu0_ITLB TOTAL        ACCESS:       4603 HIT:       4603 MISS:          0
cpu0_ITLB LOAD         ACCESS:       4603 HIT:       4603 MISS:          0
cpu0_ITLB RFO          ACCESS:          0 HIT:          0 MISS:          0
cpu0_ITLB PREFETCH     ACCESS:          0 HIT:          0 MISS:          0
cpu0_ITLB WRITE        ACCESS:          0 HIT:          0 MISS:          0
cpu0_ITLB TRANSLATION  ACCESS:          0 HIT:          0 MISS:          0
cpu0_ITLB PREFETCH REQUESTED:          0 ISSUED:          0 USEFUL:          0 USELESS:          0
cpu0_ITLB AVERAGE MISS LATENCY: -nan cycles
cpu0_L1D TOTAL        ACCESS:    6974234 HIT:    5002667 MISS:    1971567
cpu0_L1D LOAD         ACCESS:    3158429 HIT:    2483901 MISS:     674528
cpu0_L1D RFO          ACCESS:          0 HIT:          0 MISS:          0
cpu0_L1D PREFETCH     ACCESS:    2178580 HIT:    1648781 MISS:     529799
cpu0_L1D WRITE        ACCESS:    1636761 HIT:     869584 MISS:     767177
cpu0_L1D TRANSLATION  ACCESS:        464 HIT:        401 MISS:         63
cpu0_L1D PREFETCH REQUESTED:    4619313 ISSUED:    2178577 USEFUL:     147534 USELESS:       3113
cpu0_L1D AVERAGE MISS LATENCY: 55.29 cycles
cpu0_L1I TOTAL        ACCESS:       5706 HIT:       4538 MISS:       1168
cpu0_L1I LOAD         ACCESS:       5706 HIT:       4538 MISS:       1168
cpu0_L1I RFO          ACCESS:          0 HIT:          0 MISS:          0
cpu0_L1I PREFETCH     ACCESS:          0 HIT:          0 MISS:          0
cpu0_L1I WRITE        ACCESS:          0 HIT:          0 MISS:          0
cpu0_L1I TRANSLATION  ACCESS:          0 HIT:          0 MISS:          0
cpu0_L1I PREFETCH REQUESTED:          0 ISSUED:          0 USEFUL:          0 USELESS:          0
cpu0_L1I AVERAGE MISS LATENCY: 261.6 cycles
cpu0_L2C TOTAL        ACCESS:     970436 HIT:     412338 MISS:     558098
cpu0_L2C LOAD         ACCESS:     166928 HIT:      67641 MISS:      99287
cpu0_L2C RFO          ACCESS:     130209 HIT:       1977 MISS:     128232
cpu0_L2C PREFETCH     ACCESS:     485862 HIT:     155880 MISS:     329982
cpu0_L2C WRITE        ACCESS:     187374 HIT:     186808 MISS:        566
cpu0_L2C TRANSLATION  ACCESS:         63 HIT:         32 MISS:         31
cpu0_L2C PREFETCH REQUESTED:     344613 ISSUED:     335201 USEFUL:      91525 USELESS:       8949
cpu0_L2C AVERAGE MISS LATENCY: 223 cycles
cpu0_STLB TOTAL        ACCESS:       7767 HIT:       7303 MISS:        464
cpu0_STLB LOAD         ACCESS:       7767 HIT:       7303 MISS:        464
cpu0_STLB RFO          ACCESS:          0 HIT:          0 MISS:          0
cpu0_STLB PREFETCH     ACCESS:          0 HIT:          0 MISS:          0
cpu0_STLB WRITE        ACCESS:          0 HIT:          0 MISS:          0
cpu0_STLB TRANSLATION  ACCESS:          0 HIT:          0 MISS:          0
cpu0_STLB PREFETCH REQUESTED:          0 ISSUED:          0 USEFUL:          0 USELESS:          0
cpu0_STLB AVERAGE MISS LATENCY: 290.8 cycles

DRAM Statistics

Channel 0 RQ ROW_BUFFER_HIT:      38840
  ROW_BUFFER_MISS:      73646
 AVG DBUS CONGESTED CYCLE: 3.948
WQ ROW_BUFFER_HIT: Channel 0 
  ROW_BUFFER_MISS:       6294
  FULL:      76053
