WARNING: physical memory size is smaller than virtual memory size.

*** ChampSim Multicore Out-of-Order Simulator ***
Warmup Instructions: 25000000
Simulation Instructions: 25000000
Number of CPUs: 1
Page size: 4096

Off-chip DRAM Size: 4 GiB Channels: 1 Width: 64-bit Data Race: 800 MT/s
Heartbeat CPU 0 instructions: 10000002 cycles: 2568794 heartbeat IPC: 3.893 cumulative IPC: 3.893 (Simulation time: 00 hr 00 min 25 sec)
Heartbeat CPU 0 instructions: 20000003 cycles: 5137385 heartbeat IPC: 3.893 cumulative IPC: 3.893 (Simulation time: 00 hr 00 min 51 sec)
Warmup finished CPU 0 instructions: 25000002 cycles: 6421640 cumulative IPC: 3.893 (Simulation time: 00 hr 01 min 17 sec)
Warmup complete CPU 0 instructions: 25000002 cycles: 6421640 cumulative IPC: 3.893 (Simulation time: 00 hr 01 min 17 sec)
Heartbeat CPU 0 instructions: 30000000 cycles: 8744189 heartbeat IPC: 2.773 cumulative IPC: 2.153 (Simulation time: 00 hr 01 min 49 sec)
Heartbeat CPU 0 instructions: 40000002 cycles: 13377624 heartbeat IPC: 2.158 cumulative IPC: 2.156 (Simulation time: 00 hr 02 min 34 sec)
Heartbeat CPU 0 instructions: 50000001 cycles: 17899707 heartbeat IPC: 2.211 cumulative IPC: 2.178 (Simulation time: 00 hr 03 min 15 sec)
Simulation finished CPU 0 instructions: 25000003 cycles: 11478069 cumulative IPC: 2.178 (Simulation time: 00 hr 03 min 15 sec)
Simulation complete CPU 0 instructions: 25000003 cycles: 11478069 cumulative IPC: 2.178 (Simulation time: 00 hr 03 min 15 sec)

ChampSim completed all CPUs

=== Simulation ===
CPU 0 runs ./traces/628.pop2_s-17B.champsimtrace.xz
Region of Interest Statistics

CPU 0 cumulative IPC: 2.178 instructions: 25000003 cycles: 11478069
CPU 0 Branch Prediction Accuracy: 96.47% MPKI: 4.044 Average ROB Occupancy at Mispredict: 109.8
Branch type MPKI
BRANCH_DIRECT_JUMP: 0.0513
BRANCH_INDIRECT: 0.00164
BRANCH_CONDITIONAL: 3.99
BRANCH_DIRECT_CALL: 0
BRANCH_INDIRECT_CALL: 0
BRANCH_RETURN: 0

LLC TOTAL        ACCESS:     464558 HIT:     386281 MISS:      78277
LLC LOAD         ACCESS:      89966 HIT:      78381 MISS:      11585
LLC RFO          ACCESS:      85639 HIT:      80313 MISS:       5326
LLC PREFETCH     ACCESS:     158136 HIT:      97775 MISS:      60361
LLC WRITE        ACCESS:     129349 HIT:     129293 MISS:         56
LLC TRANSLATION  ACCESS:       1468 HIT:        519 MISS:        949
LLC PREFETCH REQUESTED:          0 ISSUED:          0 USEFUL:          0 USELESS:          0
LLC AVERAGE MISS LATENCY: 427.4 cycles
cpu0_DTLB TOTAL        ACCESS:    5452500 HIT:    5402015 MISS:      50485
cpu0_DTLB LOAD         ACCESS:    5452500 HIT:    5402015 MISS:      50485
cpu0_DTLB RFO          ACCESS:          0 HIT:          0 MISS:          0
cpu0_DTLB PREFETCH     ACCESS:          0 HIT:          0 MISS:          0
cpu0_DTLB WRITE        ACCESS:          0 HIT:          0 MISS:          0
cpu0_DTLB TRANSLATION  ACCESS:          0 HIT:          0 MISS:          0
cpu0_DTLB PREFETCH REQUESTED:          0 ISSUED:          0 USEFUL:          0 USELESS:          0
cpu0_DTLB AVERAGE MISS LATENCY: 13.38 cycles
cpu0_ITLB TOTAL        ACCESS:      92884 HIT:      89072 MISS:       3812
cpu0_ITLB LOAD         ACCESS:      92884 HIT:      89072 MISS:       3812
cpu0_ITLB RFO          ACCESS:          0 HIT:          0 MISS:          0
cpu0_ITLB PREFETCH     ACCESS:          0 HIT:          0 MISS:          0
cpu0_ITLB WRITE        ACCESS:          0 HIT:          0 MISS:          0
cpu0_ITLB TRANSLATION  ACCESS:          0 HIT:          0 MISS:          0
cpu0_ITLB PREFETCH REQUESTED:          0 ISSUED:          0 USEFUL:          0 USELESS:          0
cpu0_ITLB AVERAGE MISS LATENCY: 1.382 cycles
cpu0_L1D TOTAL        ACCESS:    8788841 HIT:    6580270 MISS:    2208571
cpu0_L1D LOAD         ACCESS:    4555314 HIT:    3623044 MISS:     932270
cpu0_L1D RFO          ACCESS:          0 HIT:          0 MISS:          0
cpu0_L1D PREFETCH     ACCESS:    2341471 HIT:    1689828 MISS:     651643
cpu0_L1D WRITE        ACCESS:    1890368 HIT:    1267339 MISS:     623029
cpu0_L1D TRANSLATION  ACCESS:       1688 HIT:         59 MISS:       1629
cpu0_L1D PREFETCH REQUESTED:    4620973 ISSUED:    2341471 USEFUL:     197000 USELESS:      35118
cpu0_L1D AVERAGE MISS LATENCY: 12.71 cycles
cpu0_L1I TOTAL        ACCESS:     115390 HIT:      58033 MISS:      57357
cpu0_L1I LOAD         ACCESS:     115390 HIT:      58033 MISS:      57357
cpu0_L1I RFO          ACCESS:          0 HIT:          0 MISS:          0
cpu0_L1I PREFETCH     ACCESS:          0 HIT:          0 MISS:          0
cpu0_L1I WRITE        ACCESS:          0 HIT:          0 MISS:          0
cpu0_L1I TRANSLATION  ACCESS:          0 HIT:          0 MISS:          0
cpu0_L1I PREFETCH REQUESTED:          0 ISSUED:          0 USEFUL:          0 USELESS:          0
cpu0_L1I AVERAGE MISS LATENCY: 14.27 cycles
cpu0_L2C TOTAL        ACCESS:    1322481 HIT:     914839 MISS:     407642
cpu0_L2C LOAD         ACCESS:     297943 HIT:     197760 MISS:     100183
cpu0_L2C RFO          ACCESS:     162595 HIT:      76956 MISS:      85639
cpu0_L2C PREFETCH     ACCESS:     623951 HIT:     403695 MISS:     220256
cpu0_L2C WRITE        ACCESS:     236412 HIT:     236316 MISS:         96
cpu0_L2C TRANSLATION  ACCESS:       1580 HIT:        112 MISS:       1468
cpu0_L2C PREFETCH REQUESTED:     391840 ISSUED:     391837 USEFUL:      53276 USELESS:      12778
cpu0_L2C AVERAGE MISS LATENCY: 97.71 cycles
cpu0_STLB TOTAL        ACCESS:      21950 HIT:      20727 MISS:       1223
cpu0_STLB LOAD         ACCESS:      21950 HIT:      20727 MISS:       1223
cpu0_STLB RFO          ACCESS:          0 HIT:          0 MISS:          0
cpu0_STLB PREFETCH     ACCESS:          0 HIT:          0 MISS:          0
cpu0_STLB WRITE        ACCESS:          0 HIT:          0 MISS:          0
cpu0_STLB TRANSLATION  ACCESS:          0 HIT:          0 MISS:          0
cpu0_STLB PREFETCH REQUESTED:          0 ISSUED:          0 USEFUL:          0 USELESS:          0
cpu0_STLB AVERAGE MISS LATENCY: 609.3 cycles

DRAM Statistics

Channel 0 RQ ROW_BUFFER_HIT:      43104
  ROW_BUFFER_MISS:      34544
 AVG DBUS CONGESTED CYCLE: 3.921
WQ ROW_BUFFER_HIT: Channel 0 
  ROW_BUFFER_MISS:       1884
  FULL:      20267
