WARNING: physical memory size is smaller than virtual memory size.

*** ChampSim Multicore Out-of-Order Simulator ***
Warmup Instructions: 25000000
Simulation Instructions: 25000000
Number of CPUs: 1
Page size: 4096

Off-chip DRAM Size: 4 GiB Channels: 1 Width: 64-bit Data Race: 800 MT/s
Heartbeat CPU 0 instructions: 10000002 cycles: 2500102 heartbeat IPC: 4 cumulative IPC: 4 (Simulation time: 00 hr 00 min 50 sec)
Heartbeat CPU 0 instructions: 20000002 cycles: 5000102 heartbeat IPC: 4 cumulative IPC: 4 (Simulation time: 00 hr 01 min 24 sec)
Warmup finished CPU 0 instructions: 25000002 cycles: 6250103 cumulative IPC: 4 (Simulation time: 00 hr 01 min 42 sec)
Warmup complete CPU 0 instructions: 25000002 cycles: 6250103 cumulative IPC: 4 (Simulation time: 00 hr 01 min 42 sec)
Heartbeat CPU 0 instructions: 30000003 cycles: 11927252 heartbeat IPC: 1.444 cumulative IPC: 0.8807 (Simulation time: 00 hr 02 min 33 sec)
Heartbeat CPU 0 instructions: 40000001 cycles: 23292173 heartbeat IPC: 0.8799 cumulative IPC: 0.8802 (Simulation time: 00 hr 04 min 07 sec)
Heartbeat CPU 0 instructions: 50000001 cycles: 34615665 heartbeat IPC: 0.8831 cumulative IPC: 0.8814 (Simulation time: 00 hr 05 min 50 sec)
Simulation finished CPU 0 instructions: 25000003 cycles: 28365564 cumulative IPC: 0.8814 (Simulation time: 00 hr 05 min 50 sec)
Simulation complete CPU 0 instructions: 25000003 cycles: 28365564 cumulative IPC: 0.8814 (Simulation time: 00 hr 05 min 50 sec)

ChampSim completed all CPUs

=== Simulation ===
CPU 0 runs ./traces/649.fotonik3d_s-1176B.champsimtrace.xz
Region of Interest Statistics

CPU 0 cumulative IPC: 0.8814 instructions: 25000003 cycles: 28365564
CPU 0 Branch Prediction Accuracy: 99.97% MPKI: 0.0044 Average ROB Occupancy at Mispredict: 352
Branch type MPKI
BRANCH_DIRECT_JUMP: 0
BRANCH_INDIRECT: 0
BRANCH_CONDITIONAL: 0.0044
BRANCH_DIRECT_CALL: 0
BRANCH_INDIRECT_CALL: 0
BRANCH_RETURN: 0

LLC TOTAL        ACCESS:     552700 HIT:     314637 MISS:     238063
LLC LOAD         ACCESS:      57150 HIT:       3302 MISS:      53848
LLC RFO          ACCESS:        330 HIT:        330 MISS:          0
LLC PREFETCH     ACCESS:     275628 HIT:     109776 MISS:     165852
LLC WRITE        ACCESS:     219446 HIT:     201119 MISS:      18327
LLC TRANSLATION  ACCESS:        146 HIT:        110 MISS:         36
LLC PREFETCH REQUESTED:          0 ISSUED:          0 USEFUL:          0 USELESS:          0
LLC AVERAGE MISS LATENCY: 488 cycles
cpu0_DTLB TOTAL        ACCESS:    5837369 HIT:    5802928 MISS:      34441
cpu0_DTLB LOAD         ACCESS:    5837369 HIT:    5802928 MISS:      34441
cpu0_DTLB RFO          ACCESS:          0 HIT:          0 MISS:          0
cpu0_DTLB PREFETCH     ACCESS:          0 HIT:          0 MISS:          0
cpu0_DTLB WRITE        ACCESS:          0 HIT:          0 MISS:          0
cpu0_DTLB TRANSLATION  ACCESS:          0 HIT:          0 MISS:          0
cpu0_DTLB PREFETCH REQUESTED:          0 ISSUED:          0 USEFUL:          0 USELESS:          0
cpu0_DTLB AVERAGE MISS LATENCY: 12.65 cycles
cpu0_ITLB TOTAL        ACCESS:          0 HIT:          0 MISS:          0
cpu0_ITLB LOAD         ACCESS:          0 HIT:          0 MISS:          0
cpu0_ITLB RFO          ACCESS:          0 HIT:          0 MISS:          0
cpu0_ITLB PREFETCH     ACCESS:          0 HIT:          0 MISS:          0
cpu0_ITLB WRITE        ACCESS:          0 HIT:          0 MISS:          0
cpu0_ITLB TRANSLATION  ACCESS:          0 HIT:          0 MISS:          0
cpu0_ITLB PREFETCH REQUESTED:          0 ISSUED:          0 USEFUL:          0 USELESS:          0
cpu0_ITLB AVERAGE MISS LATENCY: -nan cycles
cpu0_L1D TOTAL        ACCESS:   11989374 HIT:   10151696 MISS:    1837678
cpu0_L1D LOAD         ACCESS:    6224529 HIT:    5137750 MISS:    1086779
cpu0_L1D RFO          ACCESS:          0 HIT:          0 MISS:          0
cpu0_L1D PREFETCH     ACCESS:    4006252 HIT:    3256903 MISS:     749349
cpu0_L1D WRITE        ACCESS:    1755140 HIT:    1753737 MISS:       1403
cpu0_L1D TRANSLATION  ACCESS:       3453 HIT:       3306 MISS:        147
cpu0_L1D PREFETCH REQUESTED:    6224625 ISSUED:    4006252 USEFUL:     270658 USELESS:       2932
cpu0_L1D AVERAGE MISS LATENCY: 41.36 cycles
cpu0_L1I TOTAL        ACCESS:          0 HIT:          0 MISS:          0
cpu0_L1I LOAD         ACCESS:          0 HIT:          0 MISS:          0
cpu0_L1I RFO          ACCESS:          0 HIT:          0 MISS:          0
cpu0_L1I PREFETCH     ACCESS:          0 HIT:          0 MISS:          0
cpu0_L1I WRITE        ACCESS:          0 HIT:          0 MISS:          0
cpu0_L1I TRANSLATION  ACCESS:          0 HIT:          0 MISS:          0
cpu0_L1I PREFETCH REQUESTED:          0 ISSUED:          0 USEFUL:          0 USELESS:          0
cpu0_L1I AVERAGE MISS LATENCY: -nan cycles
cpu0_L2C TOTAL        ACCESS:     569454 HIT:     223294 MISS:     346160
cpu0_L2C LOAD         ACCESS:      59808 HIT:        651 MISS:      59157
cpu0_L2C RFO          ACCESS:        330 HIT:          0 MISS:        330
cpu0_L2C PREFETCH     ACCESS:     289517 HIT:       2990 MISS:     286527
cpu0_L2C WRITE        ACCESS:     219653 HIT:     219653 MISS:          0
cpu0_L2C TRANSLATION  ACCESS:        146 HIT:          0 MISS:        146
cpu0_L2C PREFETCH REQUESTED:      15913 ISSUED:      15913 USEFUL:      11114 USELESS:         91
cpu0_L2C AVERAGE MISS LATENCY: 355.1 cycles
cpu0_STLB TOTAL        ACCESS:       5797 HIT:       2361 MISS:       3436
cpu0_STLB LOAD         ACCESS:       5797 HIT:       2361 MISS:       3436
cpu0_STLB RFO          ACCESS:          0 HIT:          0 MISS:          0
cpu0_STLB PREFETCH     ACCESS:          0 HIT:          0 MISS:          0
cpu0_STLB WRITE        ACCESS:          0 HIT:          0 MISS:          0
cpu0_STLB TRANSLATION  ACCESS:          0 HIT:          0 MISS:          0
cpu0_STLB PREFETCH REQUESTED:          0 ISSUED:          0 USEFUL:          0 USELESS:          0
cpu0_STLB AVERAGE MISS LATENCY: 217.7 cycles

DRAM Statistics

Channel 0 RQ ROW_BUFFER_HIT:      51245
  ROW_BUFFER_MISS:     168489
 AVG DBUS CONGESTED CYCLE: 3.928
WQ ROW_BUFFER_HIT: Channel 0 
  ROW_BUFFER_MISS:      39313
  FULL:     179519
