WARNING: physical memory size is smaller than virtual memory size.

*** ChampSim Multicore Out-of-Order Simulator ***
Warmup Instructions: 25000000
Simulation Instructions: 25000000
Number of CPUs: 1
Page size: 4096

Off-chip DRAM Size: 4 GiB Channels: 1 Width: 64-bit Data Race: 800 MT/s
Heartbeat CPU 0 instructions: 10000000 cycles: 2500125 heartbeat IPC: 4 cumulative IPC: 4 (Simulation time: 00 hr 00 min 34 sec)
Heartbeat CPU 0 instructions: 20000001 cycles: 5000145 heartbeat IPC: 4 cumulative IPC: 4 (Simulation time: 00 hr 01 min 08 sec)
Warmup finished CPU 0 instructions: 25000001 cycles: 6250146 cumulative IPC: 4 (Simulation time: 00 hr 01 min 23 sec)
Warmup complete CPU 0 instructions: 25000001 cycles: 6250146 cumulative IPC: 4 (Simulation time: 00 hr 01 min 23 sec)
Heartbeat CPU 0 instructions: 30000000 cycles: 13798330 heartbeat IPC: 1.137 cumulative IPC: 0.6624 (Simulation time: 00 hr 02 min 24 sec)
Heartbeat CPU 0 instructions: 40000002 cycles: 29485934 heartbeat IPC: 0.6374 cumulative IPC: 0.6456 (Simulation time: 00 hr 04 min 30 sec)
Heartbeat CPU 0 instructions: 50000000 cycles: 45067947 heartbeat IPC: 0.6418 cumulative IPC: 0.644 (Simulation time: 00 hr 06 min 24 sec)
Simulation finished CPU 0 instructions: 25000003 cycles: 38817803 cumulative IPC: 0.644 (Simulation time: 00 hr 06 min 24 sec)
Simulation complete CPU 0 instructions: 25000003 cycles: 38817803 cumulative IPC: 0.644 (Simulation time: 00 hr 06 min 24 sec)

ChampSim completed all CPUs

=== Simulation ===
CPU 0 runs ./traces/649.fotonik3d_s-7084B.champsimtrace.xz
Region of Interest Statistics

CPU 0 cumulative IPC: 0.644 instructions: 25000003 cycles: 38817803
CPU 0 Branch Prediction Accuracy: 99.19% MPKI: 0.05616 Average ROB Occupancy at Mispredict: 352
Branch type MPKI
BRANCH_DIRECT_JUMP: 0
BRANCH_INDIRECT: 0
BRANCH_CONDITIONAL: 0.0562
BRANCH_DIRECT_CALL: 0
BRANCH_INDIRECT_CALL: 0
BRANCH_RETURN: 0

LLC TOTAL        ACCESS:     551373 HIT:     130283 MISS:     421090
LLC LOAD         ACCESS:      45889 HIT:         25 MISS:      45864
LLC RFO          ACCESS:          0 HIT:          0 MISS:          0
LLC PREFETCH     ACCESS:     375194 HIT:        136 MISS:     375058
LLC WRITE        ACCESS:     129802 HIT:     129761 MISS:         41
LLC TRANSLATION  ACCESS:        488 HIT:        361 MISS:        127
LLC PREFETCH REQUESTED:          0 ISSUED:          0 USEFUL:          0 USELESS:          0
LLC AVERAGE MISS LATENCY: 925.4 cycles
cpu0_DTLB TOTAL        ACCESS:    6190162 HIT:    6165297 MISS:      24865
cpu0_DTLB LOAD         ACCESS:    6190162 HIT:    6165297 MISS:      24865
cpu0_DTLB RFO          ACCESS:          0 HIT:          0 MISS:          0
cpu0_DTLB PREFETCH     ACCESS:          0 HIT:          0 MISS:          0
cpu0_DTLB WRITE        ACCESS:          0 HIT:          0 MISS:          0
cpu0_DTLB TRANSLATION  ACCESS:          0 HIT:          0 MISS:          0
cpu0_DTLB PREFETCH REQUESTED:          0 ISSUED:          0 USEFUL:          0 USELESS:          0
cpu0_DTLB AVERAGE MISS LATENCY: 43.01 cycles
cpu0_ITLB TOTAL        ACCESS:          0 HIT:          0 MISS:          0
cpu0_ITLB LOAD         ACCESS:          0 HIT:          0 MISS:          0
cpu0_ITLB RFO          ACCESS:          0 HIT:          0 MISS:          0
cpu0_ITLB PREFETCH     ACCESS:          0 HIT:          0 MISS:          0
cpu0_ITLB WRITE        ACCESS:          0 HIT:          0 MISS:          0
cpu0_ITLB TRANSLATION  ACCESS:          0 HIT:          0 MISS:          0
cpu0_ITLB PREFETCH REQUESTED:          0 ISSUED:          0 USEFUL:          0 USELESS:          0
cpu0_ITLB AVERAGE MISS LATENCY: -nan cycles
cpu0_L1D TOTAL        ACCESS:   10763670 HIT:    8979756 MISS:    1783914
cpu0_L1D LOAD         ACCESS:    6522578 HIT:    5793909 MISS:     728669
cpu0_L1D RFO          ACCESS:          0 HIT:          0 MISS:          0
cpu0_L1D PREFETCH     ACCESS:    3006075 HIT:    1957646 MISS:    1048429
cpu0_L1D WRITE        ACCESS:    1228182 HIT:    1228178 MISS:          4
cpu0_L1D TRANSLATION  ACCESS:       6835 HIT:         23 MISS:       6812
cpu0_L1D PREFETCH REQUESTED:    6890582 ISSUED:    3006075 USEFUL:     337796 USELESS:      13737
cpu0_L1D AVERAGE MISS LATENCY: 125.1 cycles
cpu0_L1I TOTAL        ACCESS:          0 HIT:          0 MISS:          0
cpu0_L1I LOAD         ACCESS:          0 HIT:          0 MISS:          0
cpu0_L1I RFO          ACCESS:          0 HIT:          0 MISS:          0
cpu0_L1I PREFETCH     ACCESS:          0 HIT:          0 MISS:          0
cpu0_L1I WRITE        ACCESS:          0 HIT:          0 MISS:          0
cpu0_L1I TRANSLATION  ACCESS:          0 HIT:          0 MISS:          0
cpu0_L1I PREFETCH REQUESTED:          0 ISSUED:          0 USEFUL:          0 USELESS:          0
cpu0_L1I AVERAGE MISS LATENCY: -nan cycles
cpu0_L2C TOTAL        ACCESS:     685537 HIT:     245901 MISS:     439636
cpu0_L2C LOAD         ACCESS:      85848 HIT:      39276 MISS:      46572
cpu0_L2C RFO          ACCESS:          4 HIT:          4 MISS:          0
cpu0_L2C PREFETCH     ACCESS:     462298 HIT:      69781 MISS:     392517
cpu0_L2C WRITE        ACCESS:     130575 HIT:     130516 MISS:         59
cpu0_L2C TRANSLATION  ACCESS:       6812 HIT:       6324 MISS:        488
cpu0_L2C PREFETCH REQUESTED:     110769 ISSUED:     110769 USEFUL:      39778 USELESS:       3301
cpu0_L2C AVERAGE MISS LATENCY: 904.9 cycles
cpu0_STLB TOTAL        ACCESS:      13944 HIT:       7121 MISS:       6823
cpu0_STLB LOAD         ACCESS:      13944 HIT:       7121 MISS:       6823
cpu0_STLB RFO          ACCESS:          0 HIT:          0 MISS:          0
cpu0_STLB PREFETCH     ACCESS:          0 HIT:          0 MISS:          0
cpu0_STLB WRITE        ACCESS:          0 HIT:          0 MISS:          0
cpu0_STLB TRANSLATION  ACCESS:          0 HIT:          0 MISS:          0
cpu0_STLB PREFETCH REQUESTED:          0 ISSUED:          0 USEFUL:          0 USELESS:          0
cpu0_STLB AVERAGE MISS LATENCY: 204.1 cycles

DRAM Statistics

Channel 0 RQ ROW_BUFFER_HIT:     178793
  ROW_BUFFER_MISS:     242230
 AVG DBUS CONGESTED CYCLE: 3.877
WQ ROW_BUFFER_HIT: Channel 0 
  ROW_BUFFER_MISS:       2857
  FULL:     125993
