WARNING: physical memory size is smaller than virtual memory size.

*** ChampSim Multicore Out-of-Order Simulator ***
Warmup Instructions: 25000000
Simulation Instructions: 25000000
Number of CPUs: 1
Page size: 4096

Off-chip DRAM Size: 4 GiB Channels: 1 Width: 64-bit Data Race: 800 MT/s
Heartbeat CPU 0 instructions: 10000002 cycles: 2500927 heartbeat IPC: 3.999 cumulative IPC: 3.999 (Simulation time: 00 hr 00 min 27 sec)
Heartbeat CPU 0 instructions: 20000002 cycles: 5001741 heartbeat IPC: 3.999 cumulative IPC: 3.999 (Simulation time: 00 hr 00 min 52 sec)
Warmup finished CPU 0 instructions: 25000002 cycles: 6252149 cumulative IPC: 3.999 (Simulation time: 00 hr 01 min 03 sec)
Warmup complete CPU 0 instructions: 25000002 cycles: 6252149 cumulative IPC: 3.999 (Simulation time: 00 hr 01 min 03 sec)
Heartbeat CPU 0 instructions: 30000003 cycles: 10421197 heartbeat IPC: 1.845 cumulative IPC: 1.199 (Simulation time: 00 hr 01 min 33 sec)
Heartbeat CPU 0 instructions: 40000000 cycles: 18782140 heartbeat IPC: 1.196 cumulative IPC: 1.197 (Simulation time: 00 hr 02 min 30 sec)
Heartbeat CPU 0 instructions: 50000000 cycles: 27097416 heartbeat IPC: 1.203 cumulative IPC: 1.199 (Simulation time: 00 hr 03 min 15 sec)
Simulation finished CPU 0 instructions: 25000002 cycles: 20845269 cumulative IPC: 1.199 (Simulation time: 00 hr 03 min 15 sec)
Simulation complete CPU 0 instructions: 25000002 cycles: 20845269 cumulative IPC: 1.199 (Simulation time: 00 hr 03 min 15 sec)

ChampSim completed all CPUs

=== Simulation ===
CPU 0 runs ./traces/654.roms_s-294B.champsimtrace.xz
Region of Interest Statistics

CPU 0 cumulative IPC: 1.199 instructions: 25000002 cycles: 20845269
CPU 0 Branch Prediction Accuracy: 99.93% MPKI: 0.03748 Average ROB Occupancy at Mispredict: 324
Branch type MPKI
BRANCH_DIRECT_JUMP: 0
BRANCH_INDIRECT: 0
BRANCH_CONDITIONAL: 0.0375
BRANCH_DIRECT_CALL: 0
BRANCH_INDIRECT_CALL: 0
BRANCH_RETURN: 0

LLC TOTAL        ACCESS:     343838 HIT:      53904 MISS:     289934
LLC LOAD         ACCESS:      24938 HIT:       3307 MISS:      21631
LLC RFO          ACCESS:       2559 HIT:         42 MISS:       2517
LLC PREFETCH     ACCESS:     301525 HIT:      44763 MISS:     256762
LLC WRITE        ACCESS:       2652 HIT:       2067 MISS:        585
LLC TRANSLATION  ACCESS:      12164 HIT:       3725 MISS:       8439
LLC PREFETCH REQUESTED:          0 ISSUED:          0 USEFUL:          0 USELESS:          0
LLC AVERAGE MISS LATENCY: 384.4 cycles
cpu0_DTLB TOTAL        ACCESS:    6732380 HIT:    6691810 MISS:      40570
cpu0_DTLB LOAD         ACCESS:    6732380 HIT:    6691810 MISS:      40570
cpu0_DTLB RFO          ACCESS:          0 HIT:          0 MISS:          0
cpu0_DTLB PREFETCH     ACCESS:          0 HIT:          0 MISS:          0
cpu0_DTLB WRITE        ACCESS:          0 HIT:          0 MISS:          0
cpu0_DTLB TRANSLATION  ACCESS:          0 HIT:          0 MISS:          0
cpu0_DTLB PREFETCH REQUESTED:          0 ISSUED:          0 USEFUL:          0 USELESS:          0
cpu0_DTLB AVERAGE MISS LATENCY: 96.07 cycles
cpu0_ITLB TOTAL        ACCESS:          0 HIT:          0 MISS:          0
cpu0_ITLB LOAD         ACCESS:          0 HIT:          0 MISS:          0
cpu0_ITLB RFO          ACCESS:          0 HIT:          0 MISS:          0
cpu0_ITLB PREFETCH     ACCESS:          0 HIT:          0 MISS:          0
cpu0_ITLB WRITE        ACCESS:          0 HIT:          0 MISS:          0
cpu0_ITLB TRANSLATION  ACCESS:          0 HIT:          0 MISS:          0
cpu0_ITLB PREFETCH REQUESTED:          0 ISSUED:          0 USEFUL:          0 USELESS:          0
cpu0_ITLB AVERAGE MISS LATENCY: -nan cycles
cpu0_L1D TOTAL        ACCESS:   10260871 HIT:    7992865 MISS:    2268006
cpu0_L1D LOAD         ACCESS:    7248011 HIT:    5920421 MISS:    1327590
cpu0_L1D RFO          ACCESS:          0 HIT:          0 MISS:          0
cpu0_L1D PREFETCH     ACCESS:    2150531 HIT:    1237595 MISS:     912936
cpu0_L1D WRITE        ACCESS:     849933 HIT:     834763 MISS:      15170
cpu0_L1D TRANSLATION  ACCESS:      12396 HIT:         86 MISS:      12310
cpu0_L1D PREFETCH REQUESTED:    7248230 ISSUED:    2150531 USEFUL:     418889 USELESS:      11744
cpu0_L1D AVERAGE MISS LATENCY: 18.69 cycles
cpu0_L1I TOTAL        ACCESS:          0 HIT:          0 MISS:          0
cpu0_L1I LOAD         ACCESS:          0 HIT:          0 MISS:          0
cpu0_L1I RFO          ACCESS:          0 HIT:          0 MISS:          0
cpu0_L1I PREFETCH     ACCESS:          0 HIT:          0 MISS:          0
cpu0_L1I WRITE        ACCESS:          0 HIT:          0 MISS:          0
cpu0_L1I TRANSLATION  ACCESS:          0 HIT:          0 MISS:          0
cpu0_L1I PREFETCH REQUESTED:          0 ISSUED:          0 USEFUL:          0 USELESS:          0
cpu0_L1I AVERAGE MISS LATENCY: -nan cycles
cpu0_L2C TOTAL        ACCESS:     590831 HIT:     247260 MISS:     343571
cpu0_L2C LOAD         ACCESS:      42016 HIT:      17061 MISS:      24955
cpu0_L2C RFO          ACCESS:       2601 HIT:         42 MISS:       2559
cpu0_L2C PREFETCH     ACCESS:     438462 HIT:     134569 MISS:     303893
cpu0_L2C WRITE        ACCESS:      95469 HIT:      95469 MISS:          0
cpu0_L2C TRANSLATION  ACCESS:      12283 HIT:        119 MISS:      12164
cpu0_L2C PREFETCH REQUESTED:       7826 ISSUED:       7826 USEFUL:       1190 USELESS:       1251
cpu0_L2C AVERAGE MISS LATENCY: 344.7 cycles
cpu0_STLB TOTAL        ACCESS:       9850 HIT:       1635 MISS:       8215
cpu0_STLB LOAD         ACCESS:       9850 HIT:       1635 MISS:       8215
cpu0_STLB RFO          ACCESS:          0 HIT:          0 MISS:          0
cpu0_STLB PREFETCH     ACCESS:          0 HIT:          0 MISS:          0
cpu0_STLB WRITE        ACCESS:          0 HIT:          0 MISS:          0
cpu0_STLB TRANSLATION  ACCESS:          0 HIT:          0 MISS:          0
cpu0_STLB PREFETCH REQUESTED:          0 ISSUED:          0 USEFUL:          0 USELESS:          0
cpu0_STLB AVERAGE MISS LATENCY: 778.3 cycles

DRAM Statistics

Channel 0 RQ ROW_BUFFER_HIT:     220841
  ROW_BUFFER_MISS:      67806
 AVG DBUS CONGESTED CYCLE: 3.879
WQ ROW_BUFFER_HIT: Channel 0 
  ROW_BUFFER_MISS:        212
  FULL:       2213
