WARNING: physical memory size is smaller than virtual memory size.

*** ChampSim Multicore Out-of-Order Simulator ***
Warmup Instructions: 25000000
Simulation Instructions: 25000000
Number of CPUs: 1
Page size: 4096

Off-chip DRAM Size: 4 GiB Channels: 1 Width: 64-bit Data Race: 800 MT/s
Heartbeat CPU 0 instructions: 10000003 cycles: 2500108 heartbeat IPC: 4 cumulative IPC: 4 (Simulation time: 00 hr 00 min 34 sec)
Heartbeat CPU 0 instructions: 20000003 cycles: 5000108 heartbeat IPC: 4 cumulative IPC: 4 (Simulation time: 00 hr 01 min 07 sec)
Warmup finished CPU 0 instructions: 25000003 cycles: 6250109 cumulative IPC: 4 (Simulation time: 00 hr 01 min 22 sec)
Warmup complete CPU 0 instructions: 25000003 cycles: 6250109 cumulative IPC: 4 (Simulation time: 00 hr 01 min 22 sec)
Heartbeat CPU 0 instructions: 30000000 cycles: 24042853 heartbeat IPC: 0.5251 cumulative IPC: 0.281 (Simulation time: 00 hr 03 min 36 sec)
Heartbeat CPU 0 instructions: 40000002 cycles: 52723459 heartbeat IPC: 0.3487 cumulative IPC: 0.3228 (Simulation time: 00 hr 06 min 35 sec)
Heartbeat CPU 0 instructions: 50000000 cycles: 71062681 heartbeat IPC: 0.5453 cumulative IPC: 0.3857 (Simulation time: 00 hr 07 min 55 sec)
Simulation finished CPU 0 instructions: 25000001 cycles: 64812574 cumulative IPC: 0.3857 (Simulation time: 00 hr 07 min 55 sec)
Simulation complete CPU 0 instructions: 25000001 cycles: 64812574 cumulative IPC: 0.3857 (Simulation time: 00 hr 07 min 55 sec)

ChampSim completed all CPUs

=== Simulation ===
CPU 0 runs ./traces/654.roms_s-1070B.champsimtrace.xz
Region of Interest Statistics

CPU 0 cumulative IPC: 0.3857 instructions: 25000001 cycles: 64812574
CPU 0 Branch Prediction Accuracy: 99.88% MPKI: 0.06228 Average ROB Occupancy at Mispredict: 351.7
Branch type MPKI
BRANCH_DIRECT_JUMP: 0
BRANCH_INDIRECT: 0
BRANCH_CONDITIONAL: 0.0623
BRANCH_DIRECT_CALL: 0
BRANCH_INDIRECT_CALL: 0
BRANCH_RETURN: 0

LLC TOTAL        ACCESS:     727922 HIT:     168101 MISS:     559821
LLC LOAD         ACCESS:      45853 HIT:        713 MISS:      45140
LLC RFO          ACCESS:     167090 HIT:          0 MISS:     167090
LLC PREFETCH     ACCESS:     345089 HIT:        300 MISS:     344789
LLC WRITE        ACCESS:     167086 HIT:     167018 MISS:         68
LLC TRANSLATION  ACCESS:       2804 HIT:         70 MISS:       2734
LLC PREFETCH REQUESTED:          0 ISSUED:          0 USEFUL:          0 USELESS:          0
LLC AVERAGE MISS LATENCY: 1313 cycles
cpu0_DTLB TOTAL        ACCESS:    6674226 HIT:    6614326 MISS:      59900
cpu0_DTLB LOAD         ACCESS:    6674226 HIT:    6614326 MISS:      59900
cpu0_DTLB RFO          ACCESS:          0 HIT:          0 MISS:          0
cpu0_DTLB PREFETCH     ACCESS:          0 HIT:          0 MISS:          0
cpu0_DTLB WRITE        ACCESS:          0 HIT:          0 MISS:          0
cpu0_DTLB TRANSLATION  ACCESS:          0 HIT:          0 MISS:          0
cpu0_DTLB PREFETCH REQUESTED:          0 ISSUED:          0 USEFUL:          0 USELESS:          0
cpu0_DTLB AVERAGE MISS LATENCY: 41.34 cycles
cpu0_ITLB TOTAL        ACCESS:          0 HIT:          0 MISS:          0
cpu0_ITLB LOAD         ACCESS:          0 HIT:          0 MISS:          0
cpu0_ITLB RFO          ACCESS:          0 HIT:          0 MISS:          0
cpu0_ITLB PREFETCH     ACCESS:          0 HIT:          0 MISS:          0
cpu0_ITLB WRITE        ACCESS:          0 HIT:          0 MISS:          0
cpu0_ITLB TRANSLATION  ACCESS:          0 HIT:          0 MISS:          0
cpu0_ITLB PREFETCH REQUESTED:          0 ISSUED:          0 USEFUL:          0 USELESS:          0
cpu0_ITLB AVERAGE MISS LATENCY: -nan cycles
cpu0_L1D TOTAL        ACCESS:   11258251 HIT:    5572376 MISS:    5685875
cpu0_L1D LOAD         ACCESS:    7091417 HIT:    4390540 MISS:    2700877
cpu0_L1D RFO          ACCESS:          0 HIT:          0 MISS:          0
cpu0_L1D PREFETCH     ACCESS:    2825665 HIT:    1136993 MISS:    1688672
cpu0_L1D WRITE        ACCESS:    1329057 HIT:      43793 MISS:    1285264
cpu0_L1D TRANSLATION  ACCESS:      12112 HIT:       1050 MISS:      11062
cpu0_L1D PREFETCH REQUESTED:    8123431 ISSUED:    2825660 USEFUL:     326070 USELESS:       6111
cpu0_L1D AVERAGE MISS LATENCY: 70.75 cycles
cpu0_L1I TOTAL        ACCESS:          0 HIT:          0 MISS:          0
cpu0_L1I LOAD         ACCESS:          0 HIT:          0 MISS:          0
cpu0_L1I RFO          ACCESS:          0 HIT:          0 MISS:          0
cpu0_L1I PREFETCH     ACCESS:          0 HIT:          0 MISS:          0
cpu0_L1I WRITE        ACCESS:          0 HIT:          0 MISS:          0
cpu0_L1I TRANSLATION  ACCESS:          0 HIT:          0 MISS:          0
cpu0_L1I PREFETCH REQUESTED:          0 ISSUED:          0 USEFUL:          0 USELESS:          0
cpu0_L1I AVERAGE MISS LATENCY: -nan cycles
cpu0_L2C TOTAL        ACCESS:     754155 HIT:     183771 MISS:     570384
cpu0_L2C LOAD         ACCESS:      51787 HIT:       4281 MISS:      47506
cpu0_L2C RFO          ACCESS:     167090 HIT:          0 MISS:     167090
cpu0_L2C PREFETCH     ACCESS:     356054 HIT:       3077 MISS:     352977
cpu0_L2C WRITE        ACCESS:     168162 HIT:     168155 MISS:          7
cpu0_L2C TRANSLATION  ACCESS:      11062 HIT:       8258 MISS:       2804
cpu0_L2C PREFETCH REQUESTED:      23874 ISSUED:      23874 USEFUL:       4102 USELESS:       4536
cpu0_L2C AVERAGE MISS LATENCY: 1295 cycles
cpu0_STLB TOTAL        ACCESS:      12085 HIT:          6 MISS:      12079
cpu0_STLB LOAD         ACCESS:      12085 HIT:          6 MISS:      12079
cpu0_STLB RFO          ACCESS:          0 HIT:          0 MISS:          0
cpu0_STLB PREFETCH     ACCESS:          0 HIT:          0 MISS:          0
cpu0_STLB WRITE        ACCESS:          0 HIT:          0 MISS:          0
cpu0_STLB TRANSLATION  ACCESS:          0 HIT:          0 MISS:          0
cpu0_STLB PREFETCH REQUESTED:          0 ISSUED:          0 USEFUL:          0 USELESS:          0
cpu0_STLB AVERAGE MISS LATENCY: 440.9 cycles

DRAM Statistics

Channel 0 RQ ROW_BUFFER_HIT:      87009
  ROW_BUFFER_MISS:     462331
 AVG DBUS CONGESTED CYCLE: 3.963
WQ ROW_BUFFER_HIT: Channel 0 
  ROW_BUFFER_MISS:       5759
  FULL:     160935
