WARNING: physical memory size is smaller than virtual memory size.

*** ChampSim Multicore Out-of-Order Simulator ***
Warmup Instructions: 25000000
Simulation Instructions: 25000000
Number of CPUs: 1
Page size: 4096

Off-chip DRAM Size: 4 GiB Channels: 1 Width: 64-bit Data Race: 800 MT/s
Heartbeat CPU 0 instructions: 10000000 cycles: 2500349 heartbeat IPC: 3.999 cumulative IPC: 3.999 (Simulation time: 00 hr 00 min 29 sec)
Heartbeat CPU 0 instructions: 20000000 cycles: 5000349 heartbeat IPC: 4 cumulative IPC: 4 (Simulation time: 00 hr 00 min 52 sec)
Warmup finished CPU 0 instructions: 25000000 cycles: 6250350 cumulative IPC: 4 (Simulation time: 00 hr 01 min 05 sec)
Warmup complete CPU 0 instructions: 25000000 cycles: 6250350 cumulative IPC: 4 (Simulation time: 00 hr 01 min 05 sec)
Heartbeat CPU 0 instructions: 30000002 cycles: 21114132 heartbeat IPC: 0.6206 cumulative IPC: 0.3364 (Simulation time: 00 hr 02 min 26 sec)
Heartbeat CPU 0 instructions: 40000001 cycles: 49300187 heartbeat IPC: 0.3548 cumulative IPC: 0.3484 (Simulation time: 00 hr 04 min 10 sec)
Heartbeat CPU 0 instructions: 50000003 cycles: 68335871 heartbeat IPC: 0.5253 cumulative IPC: 0.4027 (Simulation time: 00 hr 05 min 23 sec)
Simulation finished CPU 0 instructions: 25000003 cycles: 62085522 cumulative IPC: 0.4027 (Simulation time: 00 hr 05 min 23 sec)
Simulation complete CPU 0 instructions: 25000003 cycles: 62085522 cumulative IPC: 0.4027 (Simulation time: 00 hr 05 min 23 sec)

ChampSim completed all CPUs

=== Simulation ===
CPU 0 runs ./traces/654.roms_s-523B.champsimtrace.xz
Region of Interest Statistics

CPU 0 cumulative IPC: 0.4027 instructions: 25000003 cycles: 62085522
CPU 0 Branch Prediction Accuracy: 99.85% MPKI: 0.09976 Average ROB Occupancy at Mispredict: 350.4
Branch type MPKI
BRANCH_DIRECT_JUMP: 4e-05
BRANCH_INDIRECT: 0
BRANCH_CONDITIONAL: 0.0997
BRANCH_DIRECT_CALL: 0
BRANCH_INDIRECT_CALL: 0
BRANCH_RETURN: 0

LLC TOTAL        ACCESS:     895878 HIT:     224123 MISS:     671755
LLC LOAD         ACCESS:     122551 HIT:        461 MISS:     122090
LLC RFO          ACCESS:     155878 HIT:          0 MISS:     155878
LLC PREFETCH     ACCESS:     390457 HIT:       1153 MISS:     389304
LLC WRITE        ACCESS:     222676 HIT:     222254 MISS:        422
LLC TRANSLATION  ACCESS:       4316 HIT:        255 MISS:       4061
LLC PREFETCH REQUESTED:          0 ISSUED:          0 USEFUL:          0 USELESS:          0
LLC AVERAGE MISS LATENCY: 1059 cycles
cpu0_DTLB TOTAL        ACCESS:    6779692 HIT:    6688887 MISS:      90805
cpu0_DTLB LOAD         ACCESS:    6779692 HIT:    6688887 MISS:      90805
cpu0_DTLB RFO          ACCESS:          0 HIT:          0 MISS:          0
cpu0_DTLB PREFETCH     ACCESS:          0 HIT:          0 MISS:          0
cpu0_DTLB WRITE        ACCESS:          0 HIT:          0 MISS:          0
cpu0_DTLB TRANSLATION  ACCESS:          0 HIT:          0 MISS:          0
cpu0_DTLB PREFETCH REQUESTED:          0 ISSUED:          0 USEFUL:          0 USELESS:          0
cpu0_DTLB AVERAGE MISS LATENCY: 41.84 cycles
cpu0_ITLB TOTAL        ACCESS:         32 HIT:         32 MISS:          0
cpu0_ITLB LOAD         ACCESS:         32 HIT:         32 MISS:          0
cpu0_ITLB RFO          ACCESS:          0 HIT:          0 MISS:          0
cpu0_ITLB PREFETCH     ACCESS:          0 HIT:          0 MISS:          0
cpu0_ITLB WRITE        ACCESS:          0 HIT:          0 MISS:          0
cpu0_ITLB TRANSLATION  ACCESS:          0 HIT:          0 MISS:          0
cpu0_ITLB PREFETCH REQUESTED:          0 ISSUED:          0 USEFUL:          0 USELESS:          0
cpu0_ITLB AVERAGE MISS LATENCY: -nan cycles
cpu0_L1D TOTAL        ACCESS:   11915715 HIT:    5063977 MISS:    6851738
cpu0_L1D LOAD         ACCESS:    7288553 HIT:    3542984 MISS:    3745569
cpu0_L1D RFO          ACCESS:          0 HIT:          0 MISS:          0
cpu0_L1D PREFETCH     ACCESS:    2842051 HIT:     942351 MISS:    1899700
cpu0_L1D WRITE        ACCESS:    1769189 HIT:     575796 MISS:    1193393
cpu0_L1D TRANSLATION  ACCESS:      15922 HIT:       2846 MISS:      13076
cpu0_L1D PREFETCH REQUESTED:    7885147 ISSUED:    2842052 USEFUL:     388413 USELESS:      10967
cpu0_L1D AVERAGE MISS LATENCY: 61.55 cycles
cpu0_L1I TOTAL        ACCESS:         36 HIT:          6 MISS:         30
cpu0_L1I LOAD         ACCESS:         36 HIT:          6 MISS:         30
cpu0_L1I RFO          ACCESS:          0 HIT:          0 MISS:          0
cpu0_L1I PREFETCH     ACCESS:          0 HIT:          0 MISS:          0
cpu0_L1I WRITE        ACCESS:          0 HIT:          0 MISS:          0
cpu0_L1I TRANSLATION  ACCESS:          0 HIT:          0 MISS:          0
cpu0_L1I PREFETCH REQUESTED:          0 ISSUED:          0 USEFUL:          0 USELESS:          0
cpu0_L1I AVERAGE MISS LATENCY: 676.7 cycles
cpu0_L2C TOTAL        ACCESS:     999737 HIT:     282599 MISS:     717138
cpu0_L2C LOAD         ACCESS:     145184 HIT:      16606 MISS:     128578
cpu0_L2C RFO          ACCESS:     155879 HIT:          1 MISS:     155878
cpu0_L2C PREFETCH     ACCESS:     461880 HIT:      33526 MISS:     428354
cpu0_L2C WRITE        ACCESS:     223721 HIT:     223709 MISS:         12
cpu0_L2C TRANSLATION  ACCESS:      13073 HIT:       8757 MISS:       4316
cpu0_L2C PREFETCH REQUESTED:      62499 ISSUED:      62499 USEFUL:      26744 USELESS:      17139
cpu0_L2C AVERAGE MISS LATENCY: 1007 cycles
cpu0_STLB TOTAL        ACCESS:      15891 HIT:         13 MISS:      15878
cpu0_STLB LOAD         ACCESS:      15891 HIT:         13 MISS:      15878
cpu0_STLB RFO          ACCESS:          0 HIT:          0 MISS:          0
cpu0_STLB PREFETCH     ACCESS:          0 HIT:          0 MISS:          0
cpu0_STLB WRITE        ACCESS:          0 HIT:          0 MISS:          0
cpu0_STLB TRANSLATION  ACCESS:          0 HIT:          0 MISS:          0
cpu0_STLB PREFETCH REQUESTED:          0 ISSUED:          0 USEFUL:          0 USELESS:          0
cpu0_STLB AVERAGE MISS LATENCY: 462.9 cycles

DRAM Statistics

Channel 0 RQ ROW_BUFFER_HIT:     165582
  ROW_BUFFER_MISS:     505135
 AVG DBUS CONGESTED CYCLE: 3.922
WQ ROW_BUFFER_HIT: Channel 0 
  ROW_BUFFER_MISS:       5093
  FULL:     221608
