WARNING: physical memory size is smaller than virtual memory size.

*** ChampSim Multicore Out-of-Order Simulator ***
Warmup Instructions: 25000000
Simulation Instructions: 25000000
Number of CPUs: 1
Page size: 4096

Off-chip DRAM Size: 4 GiB Channels: 1 Width: 64-bit Data Race: 800 MT/s
Heartbeat CPU 0 instructions: 10000000 cycles: 2500090 heartbeat IPC: 4 cumulative IPC: 4 (Simulation time: 00 hr 00 min 31 sec)
Heartbeat CPU 0 instructions: 20000000 cycles: 5000090 heartbeat IPC: 4 cumulative IPC: 4 (Simulation time: 00 hr 01 min 01 sec)
Warmup finished CPU 0 instructions: 25000000 cycles: 6250091 cumulative IPC: 4 (Simulation time: 00 hr 01 min 15 sec)
Warmup complete CPU 0 instructions: 25000000 cycles: 6250091 cumulative IPC: 4 (Simulation time: 00 hr 01 min 15 sec)
Heartbeat CPU 0 instructions: 30000000 cycles: 7910088 heartbeat IPC: 3.436 cumulative IPC: 3.012 (Simulation time: 00 hr 01 min 33 sec)
Heartbeat CPU 0 instructions: 40000001 cycles: 11227678 heartbeat IPC: 3.014 cumulative IPC: 3.014 (Simulation time: 00 hr 02 min 09 sec)
Heartbeat CPU 0 instructions: 50000003 cycles: 34267647 heartbeat IPC: 0.434 cumulative IPC: 0.8923 (Simulation time: 00 hr 05 min 04 sec)
Simulation finished CPU 0 instructions: 25000003 cycles: 28017557 cumulative IPC: 0.8923 (Simulation time: 00 hr 05 min 04 sec)
Simulation complete CPU 0 instructions: 25000003 cycles: 28017557 cumulative IPC: 0.8923 (Simulation time: 00 hr 05 min 04 sec)

ChampSim completed all CPUs

=== Simulation ===
CPU 0 runs ./traces/654.roms_s-1007B.champsimtrace.xz
Region of Interest Statistics

CPU 0 cumulative IPC: 0.8923 instructions: 25000003 cycles: 28017557
CPU 0 Branch Prediction Accuracy: 86.84% MPKI: 12.49 Average ROB Occupancy at Mispredict: 67.77
Branch type MPKI
BRANCH_DIRECT_JUMP: 0.00016
BRANCH_INDIRECT: 0
BRANCH_CONDITIONAL: 6.26
BRANCH_DIRECT_CALL: 8e-05
BRANCH_INDIRECT_CALL: 0
BRANCH_RETURN: 6.23

LLC TOTAL        ACCESS:     331721 HIT:      84314 MISS:     247407
LLC LOAD         ACCESS:      40852 HIT:        475 MISS:      40377
LLC RFO          ACCESS:      82312 HIT:          0 MISS:      82312
LLC PREFETCH     ACCESS:     124270 HIT:       1357 MISS:     122913
LLC WRITE        ACCESS:      82778 HIT:      82462 MISS:        316
LLC TRANSLATION  ACCESS:       1509 HIT:         20 MISS:       1489
LLC PREFETCH REQUESTED:          0 ISSUED:          0 USEFUL:          0 USELESS:          0
LLC AVERAGE MISS LATENCY: 1276 cycles
cpu0_DTLB TOTAL        ACCESS:    5475842 HIT:    5438882 MISS:      36960
cpu0_DTLB LOAD         ACCESS:    5475842 HIT:    5438882 MISS:      36960
cpu0_DTLB RFO          ACCESS:          0 HIT:          0 MISS:          0
cpu0_DTLB PREFETCH     ACCESS:          0 HIT:          0 MISS:          0
cpu0_DTLB WRITE        ACCESS:          0 HIT:          0 MISS:          0
cpu0_DTLB TRANSLATION  ACCESS:          0 HIT:          0 MISS:          0
cpu0_DTLB PREFETCH REQUESTED:          0 ISSUED:          0 USEFUL:          0 USELESS:          0
cpu0_DTLB AVERAGE MISS LATENCY: 46.01 cycles
cpu0_ITLB TOTAL        ACCESS:         32 HIT:         20 MISS:         12
cpu0_ITLB LOAD         ACCESS:         32 HIT:         20 MISS:         12
cpu0_ITLB RFO          ACCESS:          0 HIT:          0 MISS:          0
cpu0_ITLB PREFETCH     ACCESS:          0 HIT:          0 MISS:          0
cpu0_ITLB WRITE        ACCESS:          0 HIT:          0 MISS:          0
cpu0_ITLB TRANSLATION  ACCESS:          0 HIT:          0 MISS:          0
cpu0_ITLB PREFETCH REQUESTED:          0 ISSUED:          0 USEFUL:          0 USELESS:          0
cpu0_ITLB AVERAGE MISS LATENCY: 151.4 cycles
cpu0_L1D TOTAL        ACCESS:   10450647 HIT:    8958052 MISS:    1492595
cpu0_L1D LOAD         ACCESS:    4198933 HIT:    3619310 MISS:     579623
cpu0_L1D RFO          ACCESS:          0 HIT:          0 MISS:          0
cpu0_L1D PREFETCH     ACCESS:    3335628 HIT:    3004937 MISS:     330691
cpu0_L1D WRITE        ACCESS:    2910284 HIT:    2333715 MISS:     576569
cpu0_L1D TRANSLATION  ACCESS:       5802 HIT:         90 MISS:       5712
cpu0_L1D PREFETCH REQUESTED:    5034822 ISSUED:    3335635 USEFUL:     116232 USELESS:       3776
cpu0_L1D AVERAGE MISS LATENCY: 111.5 cycles
cpu0_L1I TOTAL        ACCESS:         42 HIT:          7 MISS:         35
cpu0_L1I LOAD         ACCESS:         42 HIT:          7 MISS:         35
cpu0_L1I RFO          ACCESS:          0 HIT:          0 MISS:          0
cpu0_L1I PREFETCH     ACCESS:          0 HIT:          0 MISS:          0
cpu0_L1I WRITE        ACCESS:          0 HIT:          0 MISS:          0
cpu0_L1I TRANSLATION  ACCESS:          0 HIT:          0 MISS:          0
cpu0_L1I PREFETCH REQUESTED:          0 ISSUED:          0 USEFUL:          0 USELESS:          0
cpu0_L1I AVERAGE MISS LATENCY: 214.7 cycles
cpu0_L2C TOTAL        ACCESS:     377644 HIT:     125355 MISS:     252289
cpu0_L2C LOAD         ACCESS:      46570 HIT:       4956 MISS:      41614
cpu0_L2C RFO          ACCESS:      82419 HIT:        106 MISS:      82313
cpu0_L2C PREFETCH     ACCESS:     158915 HIT:      32290 MISS:     126625
cpu0_L2C WRITE        ACCESS:      84028 HIT:      83800 MISS:        228
cpu0_L2C TRANSLATION  ACCESS:       5712 HIT:       4203 MISS:       1509
cpu0_L2C PREFETCH REQUESTED:      38913 ISSUED:      38913 USEFUL:      16334 USELESS:       2320
cpu0_L2C AVERAGE MISS LATENCY: 1256 cycles
cpu0_STLB TOTAL        ACCESS:       6066 HIT:        295 MISS:       5771
cpu0_STLB LOAD         ACCESS:       6066 HIT:        295 MISS:       5771
cpu0_STLB RFO          ACCESS:          0 HIT:          0 MISS:          0
cpu0_STLB PREFETCH     ACCESS:          0 HIT:          0 MISS:          0
cpu0_STLB WRITE        ACCESS:          0 HIT:          0 MISS:          0
cpu0_STLB TRANSLATION  ACCESS:          0 HIT:          0 MISS:          0
cpu0_STLB PREFETCH REQUESTED:          0 ISSUED:          0 USEFUL:          0 USELESS:          0
cpu0_STLB AVERAGE MISS LATENCY: 578.3 cycles

DRAM Statistics

Channel 0 RQ ROW_BUFFER_HIT:     127193
  ROW_BUFFER_MISS:     119549
 AVG DBUS CONGESTED CYCLE: 3.882
WQ ROW_BUFFER_HIT: Channel 0 
  ROW_BUFFER_MISS:       1711
  FULL:      74446
