WARNING: physical memory size is smaller than virtual memory size.

*** ChampSim Multicore Out-of-Order Simulator ***
Warmup Instructions: 25000000
Simulation Instructions: 25000000
Number of CPUs: 1
Page size: 4096

Off-chip DRAM Size: 4 GiB Channels: 1 Width: 64-bit Data Race: 800 MT/s
Heartbeat CPU 0 instructions: 10000002 cycles: 2500084 heartbeat IPC: 4 cumulative IPC: 4 (Simulation time: 00 hr 00 min 24 sec)
Heartbeat CPU 0 instructions: 20000002 cycles: 5000084 heartbeat IPC: 4 cumulative IPC: 4 (Simulation time: 00 hr 00 min 49 sec)
Warmup finished CPU 0 instructions: 25000002 cycles: 6250085 cumulative IPC: 4 (Simulation time: 00 hr 01 min 02 sec)
Warmup complete CPU 0 instructions: 25000002 cycles: 6250085 cumulative IPC: 4 (Simulation time: 00 hr 01 min 02 sec)
Heartbeat CPU 0 instructions: 30000002 cycles: 7860557 heartbeat IPC: 3.496 cumulative IPC: 3.105 (Simulation time: 00 hr 01 min 17 sec)
Heartbeat CPU 0 instructions: 40000002 cycles: 11111521 heartbeat IPC: 3.076 cumulative IPC: 3.086 (Simulation time: 00 hr 01 min 48 sec)
Heartbeat CPU 0 instructions: 50000003 cycles: 28102953 heartbeat IPC: 0.5885 cumulative IPC: 1.144 (Simulation time: 00 hr 03 min 38 sec)
Simulation finished CPU 0 instructions: 25000001 cycles: 21852869 cumulative IPC: 1.144 (Simulation time: 00 hr 03 min 38 sec)
Simulation complete CPU 0 instructions: 25000001 cycles: 21852869 cumulative IPC: 1.144 (Simulation time: 00 hr 03 min 38 sec)

ChampSim completed all CPUs

=== Simulation ===
CPU 0 runs ./traces/654.roms_s-1613B.champsimtrace.xz
Region of Interest Statistics

CPU 0 cumulative IPC: 1.144 instructions: 25000001 cycles: 21852869
CPU 0 Branch Prediction Accuracy: 87.17% MPKI: 13.24 Average ROB Occupancy at Mispredict: 73.32
Branch type MPKI
BRANCH_DIRECT_JUMP: 0.00032
BRANCH_INDIRECT: 0
BRANCH_CONDITIONAL: 6.64
BRANCH_DIRECT_CALL: 0.00032
BRANCH_INDIRECT_CALL: 0
BRANCH_RETURN: 6.6

LLC TOTAL        ACCESS:     352742 HIT:      81128 MISS:     271614
LLC LOAD         ACCESS:      55270 HIT:       1894 MISS:      53376
LLC RFO          ACCESS:      76910 HIT:          0 MISS:      76910
LLC PREFETCH     ACCESS:     142624 HIT:       3467 MISS:     139157
LLC WRITE        ACCESS:      77050 HIT:      75676 MISS:       1374
LLC TRANSLATION  ACCESS:        888 HIT:         91 MISS:        797
LLC PREFETCH REQUESTED:          0 ISSUED:          0 USEFUL:          0 USELESS:          0
LLC AVERAGE MISS LATENCY: 796.4 cycles
cpu0_DTLB TOTAL        ACCESS:    4862226 HIT:    4827983 MISS:      34243
cpu0_DTLB LOAD         ACCESS:    4862226 HIT:    4827983 MISS:      34243
cpu0_DTLB RFO          ACCESS:          0 HIT:          0 MISS:          0
cpu0_DTLB PREFETCH     ACCESS:          0 HIT:          0 MISS:          0
cpu0_DTLB WRITE        ACCESS:          0 HIT:          0 MISS:          0
cpu0_DTLB TRANSLATION  ACCESS:          0 HIT:          0 MISS:          0
cpu0_DTLB PREFETCH REQUESTED:          0 ISSUED:          0 USEFUL:          0 USELESS:          0
cpu0_DTLB AVERAGE MISS LATENCY: 30.89 cycles
cpu0_ITLB TOTAL        ACCESS:        127 HIT:        117 MISS:         10
cpu0_ITLB LOAD         ACCESS:        127 HIT:        117 MISS:         10
cpu0_ITLB RFO          ACCESS:          0 HIT:          0 MISS:          0
cpu0_ITLB PREFETCH     ACCESS:          0 HIT:          0 MISS:          0
cpu0_ITLB WRITE        ACCESS:          0 HIT:          0 MISS:          0
cpu0_ITLB TRANSLATION  ACCESS:          0 HIT:          0 MISS:          0
cpu0_ITLB PREFETCH REQUESTED:          0 ISSUED:          0 USEFUL:          0 USELESS:          0
cpu0_ITLB AVERAGE MISS LATENCY: 382.7 cycles
cpu0_L1D TOTAL        ACCESS:   10255963 HIT:    8922497 MISS:    1333466
cpu0_L1D LOAD         ACCESS:    3931657 HIT:    3470351 MISS:     461306
cpu0_L1D RFO          ACCESS:          0 HIT:          0 MISS:          0
cpu0_L1D PREFETCH     ACCESS:    3564968 HIT:    3244749 MISS:     320219
cpu0_L1D WRITE        ACCESS:    2755401 HIT:    2205761 MISS:     549640
cpu0_L1D TRANSLATION  ACCESS:       3937 HIT:       1636 MISS:       2301
cpu0_L1D PREFETCH REQUESTED:    7255105 ISSUED:    3564977 USEFUL:      47778 USELESS:       2240
cpu0_L1D AVERAGE MISS LATENCY: 134.8 cycles
cpu0_L1I TOTAL        ACCESS:        149 HIT:         55 MISS:         94
cpu0_L1I LOAD         ACCESS:        149 HIT:         55 MISS:         94
cpu0_L1I RFO          ACCESS:          0 HIT:          0 MISS:          0
cpu0_L1I PREFETCH     ACCESS:          0 HIT:          0 MISS:          0
cpu0_L1I WRITE        ACCESS:          0 HIT:          0 MISS:          0
cpu0_L1I TRANSLATION  ACCESS:          0 HIT:          0 MISS:          0
cpu0_L1I PREFETCH REQUESTED:          0 ISSUED:          0 USEFUL:          0 USELESS:          0
cpu0_L1I AVERAGE MISS LATENCY: 341.9 cycles
cpu0_L2C TOTAL        ACCESS:     421519 HIT:     111245 MISS:     310274
cpu0_L2C LOAD         ACCESS:      68736 HIT:       2401 MISS:      66335
cpu0_L2C RFO          ACCESS:      76994 HIT:         84 MISS:      76910
cpu0_L2C PREFETCH     ACCESS:     195817 HIT:      29892 MISS:     165925
cpu0_L2C WRITE        ACCESS:      77674 HIT:      77458 MISS:        216
cpu0_L2C TRANSLATION  ACCESS:       2298 HIT:       1410 MISS:        888
cpu0_L2C PREFETCH REQUESTED:     145800 ISSUED:     145800 USEFUL:      23612 USELESS:       4985
cpu0_L2C AVERAGE MISS LATENCY: 668.7 cycles
cpu0_STLB TOTAL        ACCESS:       4216 HIT:        297 MISS:       3919
cpu0_STLB LOAD         ACCESS:       4216 HIT:        297 MISS:       3919
cpu0_STLB RFO          ACCESS:          0 HIT:          0 MISS:          0
cpu0_STLB PREFETCH     ACCESS:          0 HIT:          0 MISS:          0
cpu0_STLB WRITE        ACCESS:          0 HIT:          0 MISS:          0
cpu0_STLB TRANSLATION  ACCESS:          0 HIT:          0 MISS:          0
cpu0_STLB PREFETCH REQUESTED:          0 ISSUED:          0 USEFUL:          0 USELESS:          0
cpu0_STLB AVERAGE MISS LATENCY: 512.8 cycles

DRAM Statistics

Channel 0 RQ ROW_BUFFER_HIT:      83418
  ROW_BUFFER_MISS:     110742
 AVG DBUS CONGESTED CYCLE: 3.928
WQ ROW_BUFFER_HIT: Channel 0 
  ROW_BUFFER_MISS:       4008
  FULL:      66139
