WARNING: physical memory size is smaller than virtual memory size.

*** ChampSim Multicore Out-of-Order Simulator ***
Warmup Instructions: 25000000
Simulation Instructions: 25000000
Number of CPUs: 1
Page size: 4096

Off-chip DRAM Size: 4 GiB Channels: 1 Width: 64-bit Data Race: 800 MT/s
Heartbeat CPU 0 instructions: 10000003 cycles: 2500096 heartbeat IPC: 4 cumulative IPC: 4 (Simulation time: 00 hr 00 min 40 sec)
Heartbeat CPU 0 instructions: 20000003 cycles: 5000096 heartbeat IPC: 4 cumulative IPC: 4 (Simulation time: 00 hr 01 min 23 sec)
Warmup finished CPU 0 instructions: 25000003 cycles: 6250097 cumulative IPC: 4 (Simulation time: 00 hr 01 min 46 sec)
Warmup complete CPU 0 instructions: 25000003 cycles: 6250097 cumulative IPC: 4 (Simulation time: 00 hr 01 min 46 sec)
Heartbeat CPU 0 instructions: 30000001 cycles: 28853619 heartbeat IPC: 0.4192 cumulative IPC: 0.2212 (Simulation time: 00 hr 04 min 15 sec)
Heartbeat CPU 0 instructions: 40000001 cycles: 77715876 heartbeat IPC: 0.2047 cumulative IPC: 0.2099 (Simulation time: 00 hr 09 min 03 sec)
Heartbeat CPU 0 instructions: 50000000 cycles: 122655156 heartbeat IPC: 0.2225 cumulative IPC: 0.2148 (Simulation time: 00 hr 13 min 21 sec)
Simulation finished CPU 0 instructions: 25000001 cycles: 116405061 cumulative IPC: 0.2148 (Simulation time: 00 hr 13 min 21 sec)
Simulation complete CPU 0 instructions: 25000001 cycles: 116405061 cumulative IPC: 0.2148 (Simulation time: 00 hr 13 min 21 sec)

ChampSim completed all CPUs

=== Simulation ===
CPU 0 runs ./traces/astar_23B.trace.xz
Region of Interest Statistics

CPU 0 cumulative IPC: 0.2148 instructions: 25000001 cycles: 116405061
CPU 0 Branch Prediction Accuracy: 72.89% MPKI: 51.75 Average ROB Occupancy at Mispredict: 4.921
Branch type MPKI
BRANCH_DIRECT_JUMP: 0
BRANCH_INDIRECT: 0
BRANCH_CONDITIONAL: 51.7
BRANCH_DIRECT_CALL: 0
BRANCH_INDIRECT_CALL: 0
BRANCH_RETURN: 0

LLC TOTAL        ACCESS:    1452263 HIT:     433007 MISS:    1019256
LLC LOAD         ACCESS:     587465 HIT:     162167 MISS:     425298
LLC RFO          ACCESS:      10022 HIT:       6006 MISS:       4016
LLC PREFETCH     ACCESS:     616555 HIT:     180310 MISS:     436245
LLC WRITE        ACCESS:     227243 HIT:      79478 MISS:     147765
LLC TRANSLATION  ACCESS:      10978 HIT:       5046 MISS:       5932
LLC PREFETCH REQUESTED:          0 ISSUED:          0 USEFUL:          0 USELESS:          0
LLC AVERAGE MISS LATENCY: 238.2 cycles
cpu0_DTLB TOTAL        ACCESS:    7002642 HIT:    6185959 MISS:     816683
cpu0_DTLB LOAD         ACCESS:    7002642 HIT:    6185959 MISS:     816683
cpu0_DTLB RFO          ACCESS:          0 HIT:          0 MISS:          0
cpu0_DTLB PREFETCH     ACCESS:          0 HIT:          0 MISS:          0
cpu0_DTLB WRITE        ACCESS:          0 HIT:          0 MISS:          0
cpu0_DTLB TRANSLATION  ACCESS:          0 HIT:          0 MISS:          0
cpu0_DTLB PREFETCH REQUESTED:          0 ISSUED:          0 USEFUL:          0 USELESS:          0
cpu0_DTLB AVERAGE MISS LATENCY: 10.21 cycles
cpu0_ITLB TOTAL        ACCESS:          0 HIT:          0 MISS:          0
cpu0_ITLB LOAD         ACCESS:          0 HIT:          0 MISS:          0
cpu0_ITLB RFO          ACCESS:          0 HIT:          0 MISS:          0
cpu0_ITLB PREFETCH     ACCESS:          0 HIT:          0 MISS:          0
cpu0_ITLB WRITE        ACCESS:          0 HIT:          0 MISS:          0
cpu0_ITLB TRANSLATION  ACCESS:          0 HIT:          0 MISS:          0
cpu0_ITLB PREFETCH REQUESTED:          0 ISSUED:          0 USEFUL:          0 USELESS:          0
cpu0_ITLB AVERAGE MISS LATENCY: -nan cycles
cpu0_L1D TOTAL        ACCESS:   14391333 HIT:   11825590 MISS:    2565743
cpu0_L1D LOAD         ACCESS:    6607056 HIT:    5627599 MISS:     979457
cpu0_L1D RFO          ACCESS:          0 HIT:          0 MISS:          0
cpu0_L1D PREFETCH     ACCESS:    6472069 HIT:    4935149 MISS:    1536920
cpu0_L1D WRITE        ACCESS:    1070052 HIT:    1042307 MISS:      27745
cpu0_L1D TRANSLATION  ACCESS:     242156 HIT:     220535 MISS:      21621
cpu0_L1D PREFETCH REQUESTED:    6666362 ISSUED:    6472063 USEFUL:      98921 USELESS:     643324
cpu0_L1D AVERAGE MISS LATENCY: 108.9 cycles
cpu0_L1I TOTAL        ACCESS:          0 HIT:          0 MISS:          0
cpu0_L1I LOAD         ACCESS:          0 HIT:          0 MISS:          0
cpu0_L1I RFO          ACCESS:          0 HIT:          0 MISS:          0
cpu0_L1I PREFETCH     ACCESS:          0 HIT:          0 MISS:          0
cpu0_L1I WRITE        ACCESS:          0 HIT:          0 MISS:          0
cpu0_L1I TRANSLATION  ACCESS:          0 HIT:          0 MISS:          0
cpu0_L1I PREFETCH REQUESTED:          0 ISSUED:          0 USEFUL:          0 USELESS:          0
cpu0_L1I AVERAGE MISS LATENCY: -nan cycles
cpu0_L2C TOTAL        ACCESS:    1733811 HIT:     508752 MISS:    1225059
cpu0_L2C LOAD         ACCESS:     685156 HIT:      97691 MISS:     587465
cpu0_L2C RFO          ACCESS:      20272 HIT:      10250 MISS:      10022
cpu0_L2C PREFETCH     ACCESS:     742241 HIT:     125684 MISS:     616557
cpu0_L2C WRITE        ACCESS:     265127 HIT:     265090 MISS:         37
cpu0_L2C TRANSLATION  ACCESS:      21015 HIT:      10037 MISS:      10978
cpu0_L2C PREFETCH REQUESTED:         24 ISSUED:         24 USEFUL:          5 USELESS:         15
cpu0_L2C AVERAGE MISS LATENCY: 218.9 cycles
cpu0_STLB TOTAL        ACCESS:     622301 HIT:     380145 MISS:     242156
cpu0_STLB LOAD         ACCESS:     622301 HIT:     380145 MISS:     242156
cpu0_STLB RFO          ACCESS:          0 HIT:          0 MISS:          0
cpu0_STLB PREFETCH     ACCESS:          0 HIT:          0 MISS:          0
cpu0_STLB WRITE        ACCESS:          0 HIT:          0 MISS:          0
cpu0_STLB TRANSLATION  ACCESS:          0 HIT:          0 MISS:          0
cpu0_STLB PREFETCH REQUESTED:          0 ISSUED:          0 USEFUL:          0 USELESS:          0
cpu0_STLB AVERAGE MISS LATENCY: 15.42 cycles

DRAM Statistics

Channel 0 RQ ROW_BUFFER_HIT:     371326
  ROW_BUFFER_MISS:     482930
 AVG DBUS CONGESTED CYCLE: 3.89
WQ ROW_BUFFER_HIT: Channel 0 
  ROW_BUFFER_MISS:      16146
  FULL:     145787
