WARNING: physical memory size is smaller than virtual memory size.

*** ChampSim Multicore Out-of-Order Simulator ***
Warmup Instructions: 25000000
Simulation Instructions: 25000000
Number of CPUs: 1
Page size: 4096

Off-chip DRAM Size: 4 GiB Channels: 1 Width: 64-bit Data Race: 800 MT/s
Heartbeat CPU 0 instructions: 10000000 cycles: 2506860 heartbeat IPC: 3.989 cumulative IPC: 3.989 (Simulation time: 00 hr 00 min 41 sec)
Heartbeat CPU 0 instructions: 20000002 cycles: 5027261 heartbeat IPC: 3.968 cumulative IPC: 3.978 (Simulation time: 00 hr 01 min 21 sec)
Warmup finished CPU 0 instructions: 25000003 cycles: 6303719 cumulative IPC: 3.966 (Simulation time: 00 hr 01 min 42 sec)
Warmup complete CPU 0 instructions: 25000003 cycles: 6303719 cumulative IPC: 3.966 (Simulation time: 00 hr 01 min 42 sec)
Heartbeat CPU 0 instructions: 30000000 cycles: 9078867 heartbeat IPC: 2.468 cumulative IPC: 1.802 (Simulation time: 00 hr 02 min 18 sec)
Heartbeat CPU 0 instructions: 40000001 cycles: 13969012 heartbeat IPC: 2.045 cumulative IPC: 1.957 (Simulation time: 00 hr 03 min 21 sec)
Heartbeat CPU 0 instructions: 50000002 cycles: 18821567 heartbeat IPC: 2.061 cumulative IPC: 1.997 (Simulation time: 00 hr 04 min 22 sec)
Simulation finished CPU 0 instructions: 25000003 cycles: 12517850 cumulative IPC: 1.997 (Simulation time: 00 hr 04 min 22 sec)
Simulation complete CPU 0 instructions: 25000003 cycles: 12517850 cumulative IPC: 1.997 (Simulation time: 00 hr 04 min 22 sec)

ChampSim completed all CPUs

=== Simulation ===
CPU 0 runs ./traces/bzip2_281B.trace.xz
Region of Interest Statistics

CPU 0 cumulative IPC: 1.997 instructions: 25000003 cycles: 12517850
CPU 0 Branch Prediction Accuracy: 91.8% MPKI: 14.4 Average ROB Occupancy at Mispredict: 76.57
Branch type MPKI
BRANCH_DIRECT_JUMP: 0.00064
BRANCH_INDIRECT: 0
BRANCH_CONDITIONAL: 14.4
BRANCH_DIRECT_CALL: 4e-05
BRANCH_INDIRECT_CALL: 0
BRANCH_RETURN: 0.00012

LLC TOTAL        ACCESS:     930980 HIT:     840394 MISS:      90586
LLC LOAD         ACCESS:     501351 HIT:     489194 MISS:      12157
LLC RFO          ACCESS:       9425 HIT:       1676 MISS:       7749
LLC PREFETCH     ACCESS:     409868 HIT:     340173 MISS:      69695
LLC WRITE        ACCESS:      10318 HIT:       9348 MISS:        970
LLC TRANSLATION  ACCESS:         18 HIT:          3 MISS:         15
LLC PREFETCH REQUESTED:          0 ISSUED:          0 USEFUL:          0 USELESS:          0
LLC AVERAGE MISS LATENCY: 252.8 cycles
cpu0_DTLB TOTAL        ACCESS:    5647598 HIT:    5286515 MISS:     361083
cpu0_DTLB LOAD         ACCESS:    5647598 HIT:    5286515 MISS:     361083
cpu0_DTLB RFO          ACCESS:          0 HIT:          0 MISS:          0
cpu0_DTLB PREFETCH     ACCESS:          0 HIT:          0 MISS:          0
cpu0_DTLB WRITE        ACCESS:          0 HIT:          0 MISS:          0
cpu0_DTLB TRANSLATION  ACCESS:          0 HIT:          0 MISS:          0
cpu0_DTLB PREFETCH REQUESTED:          0 ISSUED:          0 USEFUL:          0 USELESS:          0
cpu0_DTLB AVERAGE MISS LATENCY: 6.62 cycles
cpu0_ITLB TOTAL        ACCESS:         76 HIT:         71 MISS:          5
cpu0_ITLB LOAD         ACCESS:         76 HIT:         71 MISS:          5
cpu0_ITLB RFO          ACCESS:          0 HIT:          0 MISS:          0
cpu0_ITLB PREFETCH     ACCESS:          0 HIT:          0 MISS:          0
cpu0_ITLB WRITE        ACCESS:          0 HIT:          0 MISS:          0
cpu0_ITLB TRANSLATION  ACCESS:          0 HIT:          0 MISS:          0
cpu0_ITLB PREFETCH REQUESTED:          0 ISSUED:          0 USEFUL:          0 USELESS:          0
cpu0_ITLB AVERAGE MISS LATENCY: 273 cycles
cpu0_L1D TOTAL        ACCESS:    9434853 HIT:    6912004 MISS:    2522849
cpu0_L1D LOAD         ACCESS:    4378522 HIT:    3100126 MISS:    1278396
cpu0_L1D RFO          ACCESS:          0 HIT:          0 MISS:          0
cpu0_L1D PREFETCH     ACCESS:    3170536 HIT:    2008802 MISS:    1161734
cpu0_L1D WRITE        ACCESS:    1885346 HIT:    1802858 MISS:      82488
cpu0_L1D TRANSLATION  ACCESS:        449 HIT:        218 MISS:        231
cpu0_L1D PREFETCH REQUESTED:    4416978 ISSUED:    3170529 USEFUL:      83115 USELESS:     396697
cpu0_L1D AVERAGE MISS LATENCY: 16.52 cycles
cpu0_L1I TOTAL        ACCESS:         90 HIT:         24 MISS:         66
cpu0_L1I LOAD         ACCESS:         90 HIT:         24 MISS:         66
cpu0_L1I RFO          ACCESS:          0 HIT:          0 MISS:          0
cpu0_L1I PREFETCH     ACCESS:          0 HIT:          0 MISS:          0
cpu0_L1I WRITE        ACCESS:          0 HIT:          0 MISS:          0
cpu0_L1I TRANSLATION  ACCESS:          0 HIT:          0 MISS:          0
cpu0_L1I PREFETCH REQUESTED:          0 ISSUED:          0 USEFUL:          0 USELESS:          0
cpu0_L1I AVERAGE MISS LATENCY: 165.8 cycles
cpu0_L2C TOTAL        ACCESS:    1323562 HIT:     306227 MISS:    1017335
cpu0_L2C LOAD         ACCESS:     668653 HIT:     163066 MISS:     505587
cpu0_L2C RFO          ACCESS:       9682 HIT:        256 MISS:       9426
cpu0_L2C PREFETCH     ACCESS:     633714 HIT:     131603 MISS:     502111
cpu0_L2C WRITE        ACCESS:      11282 HIT:      11089 MISS:        193
cpu0_L2C TRANSLATION  ACCESS:        231 HIT:        213 MISS:         18
cpu0_L2C PREFETCH REQUESTED:     153890 ISSUED:     153890 USEFUL:      19314 USELESS:      46972
cpu0_L2C AVERAGE MISS LATENCY: 40.25 cycles
cpu0_STLB TOTAL        ACCESS:     312917 HIT:     312468 MISS:        449
cpu0_STLB LOAD         ACCESS:     312917 HIT:     312468 MISS:        449
cpu0_STLB RFO          ACCESS:          0 HIT:          0 MISS:          0
cpu0_STLB PREFETCH     ACCESS:          0 HIT:          0 MISS:          0
cpu0_STLB WRITE        ACCESS:          0 HIT:          0 MISS:          0
cpu0_STLB TRANSLATION  ACCESS:          0 HIT:          0 MISS:          0
cpu0_STLB PREFETCH REQUESTED:          0 ISSUED:          0 USEFUL:          0 USELESS:          0
cpu0_STLB AVERAGE MISS LATENCY: 233.7 cycles

DRAM Statistics

Channel 0 RQ ROW_BUFFER_HIT:      42521
  ROW_BUFFER_MISS:      46654
 AVG DBUS CONGESTED CYCLE: 3.858
WQ ROW_BUFFER_HIT: Channel 0 
  ROW_BUFFER_MISS:       2953
  FULL:       9513
