WARNING: physical memory size is smaller than virtual memory size.

*** ChampSim Multicore Out-of-Order Simulator ***
Warmup Instructions: 25000000
Simulation Instructions: 25000000
Number of CPUs: 1
Page size: 4096

Off-chip DRAM Size: 4 GiB Channels: 1 Width: 64-bit Data Race: 800 MT/s
Heartbeat CPU 0 instructions: 10000001 cycles: 2514195 heartbeat IPC: 3.977 cumulative IPC: 3.977 (Simulation time: 00 hr 00 min 47 sec)
Heartbeat CPU 0 instructions: 20000003 cycles: 5070824 heartbeat IPC: 3.911 cumulative IPC: 3.944 (Simulation time: 00 hr 01 min 38 sec)
Warmup finished CPU 0 instructions: 25000003 cycles: 6387040 cumulative IPC: 3.914 (Simulation time: 00 hr 02 min 06 sec)
Warmup complete CPU 0 instructions: 25000003 cycles: 6387040 cumulative IPC: 3.914 (Simulation time: 00 hr 02 min 06 sec)
Heartbeat CPU 0 instructions: 30000002 cycles: 8379321 heartbeat IPC: 3.023 cumulative IPC: 2.51 (Simulation time: 00 hr 02 min 43 sec)
Heartbeat CPU 0 instructions: 40000003 cycles: 18525701 heartbeat IPC: 0.9856 cumulative IPC: 1.236 (Simulation time: 00 hr 04 min 50 sec)
Heartbeat CPU 0 instructions: 50000002 cycles: 27814939 heartbeat IPC: 1.077 cumulative IPC: 1.167 (Simulation time: 00 hr 06 min 43 sec)
Simulation finished CPU 0 instructions: 25000003 cycles: 21427901 cumulative IPC: 1.167 (Simulation time: 00 hr 06 min 43 sec)
Simulation complete CPU 0 instructions: 25000003 cycles: 21427901 cumulative IPC: 1.167 (Simulation time: 00 hr 06 min 43 sec)

ChampSim completed all CPUs

=== Simulation ===
CPU 0 runs ./traces/cactusADM_734B.trace.xz
Region of Interest Statistics

CPU 0 cumulative IPC: 1.167 instructions: 25000003 cycles: 21427901
CPU 0 Branch Prediction Accuracy: 98.22% MPKI: 0.03732 Average ROB Occupancy at Mispredict: 275.9
Branch type MPKI
BRANCH_DIRECT_JUMP: 0
BRANCH_INDIRECT: 0
BRANCH_CONDITIONAL: 0.0373
BRANCH_DIRECT_CALL: 0
BRANCH_INDIRECT_CALL: 0
BRANCH_RETURN: 0

LLC TOTAL        ACCESS:     312912 HIT:      66206 MISS:     246706
LLC LOAD         ACCESS:      32590 HIT:       7077 MISS:      25513
LLC RFO          ACCESS:      67002 HIT:      10793 MISS:      56209
LLC PREFETCH     ACCESS:     135288 HIT:      30876 MISS:     104412
LLC WRITE        ACCESS:      66277 HIT:      17343 MISS:      48934
LLC TRANSLATION  ACCESS:      11755 HIT:        117 MISS:      11638
LLC PREFETCH REQUESTED:          0 ISSUED:          0 USEFUL:          0 USELESS:          0
LLC AVERAGE MISS LATENCY: 825.7 cycles
cpu0_DTLB TOTAL        ACCESS:    5738411 HIT:    5221672 MISS:     516739
cpu0_DTLB LOAD         ACCESS:    5738411 HIT:    5221672 MISS:     516739
cpu0_DTLB RFO          ACCESS:          0 HIT:          0 MISS:          0
cpu0_DTLB PREFETCH     ACCESS:          0 HIT:          0 MISS:          0
cpu0_DTLB WRITE        ACCESS:          0 HIT:          0 MISS:          0
cpu0_DTLB TRANSLATION  ACCESS:          0 HIT:          0 MISS:          0
cpu0_DTLB PREFETCH REQUESTED:          0 ISSUED:          0 USEFUL:          0 USELESS:          0
cpu0_DTLB AVERAGE MISS LATENCY: 34.9 cycles
cpu0_ITLB TOTAL        ACCESS:    3534277 HIT:    3534277 MISS:          0
cpu0_ITLB LOAD         ACCESS:    3534277 HIT:    3534277 MISS:          0
cpu0_ITLB RFO          ACCESS:          0 HIT:          0 MISS:          0
cpu0_ITLB PREFETCH     ACCESS:          0 HIT:          0 MISS:          0
cpu0_ITLB WRITE        ACCESS:          0 HIT:          0 MISS:          0
cpu0_ITLB TRANSLATION  ACCESS:          0 HIT:          0 MISS:          0
cpu0_ITLB PREFETCH REQUESTED:          0 ISSUED:          0 USEFUL:          0 USELESS:          0
cpu0_ITLB AVERAGE MISS LATENCY: -nan cycles
cpu0_L1D TOTAL        ACCESS:    9948348 HIT:    9134883 MISS:     813465
cpu0_L1D LOAD         ACCESS:    5844412 HIT:    5607476 MISS:     236936
cpu0_L1D RFO          ACCESS:          0 HIT:          0 MISS:          0
cpu0_L1D PREFETCH     ACCESS:     942035 HIT:     798983 MISS:     143052
cpu0_L1D WRITE        ACCESS:    2915958 HIT:    2613000 MISS:     302958
cpu0_L1D TRANSLATION  ACCESS:     245943 HIT:     115424 MISS:     130519
cpu0_L1D PREFETCH REQUESTED:    6318079 ISSUED:     942041 USEFUL:      98409 USELESS:       4094
cpu0_L1D AVERAGE MISS LATENCY: 174.1 cycles
cpu0_L1I TOTAL        ACCESS:    4638169 HIT:    4638169 MISS:          0
cpu0_L1I LOAD         ACCESS:    4638169 HIT:    4638169 MISS:          0
cpu0_L1I RFO          ACCESS:          0 HIT:          0 MISS:          0
cpu0_L1I PREFETCH     ACCESS:          0 HIT:          0 MISS:          0
cpu0_L1I WRITE        ACCESS:          0 HIT:          0 MISS:          0
cpu0_L1I TRANSLATION  ACCESS:          0 HIT:          0 MISS:          0
cpu0_L1I PREFETCH REQUESTED:          0 ISSUED:          0 USEFUL:          0 USELESS:          0
cpu0_L1I AVERAGE MISS LATENCY: -nan cycles
cpu0_L2C TOTAL        ACCESS:     857305 HIT:     607468 MISS:     249837
cpu0_L2C LOAD         ACCESS:     193147 HIT:     159976 MISS:      33171
cpu0_L2C RFO          ACCESS:      68016 HIT:       1014 MISS:      67002
cpu0_L2C PREFETCH     ACCESS:     395644 HIT:     257853 MISS:     137791
cpu0_L2C WRITE        ACCESS:      70072 HIT:      69954 MISS:        118
cpu0_L2C TRANSLATION  ACCESS:     130426 HIT:     118671 MISS:      11755
cpu0_L2C PREFETCH REQUESTED:     293362 ISSUED:     293140 USEFUL:      67142 USELESS:        358
cpu0_L2C AVERAGE MISS LATENCY: 809.2 cycles
cpu0_STLB TOTAL        ACCESS:     391223 HIT:     258321 MISS:     132902
cpu0_STLB LOAD         ACCESS:     391223 HIT:     258321 MISS:     132902
cpu0_STLB RFO          ACCESS:          0 HIT:          0 MISS:          0
cpu0_STLB PREFETCH     ACCESS:          0 HIT:          0 MISS:          0
cpu0_STLB WRITE        ACCESS:          0 HIT:          0 MISS:          0
cpu0_STLB TRANSLATION  ACCESS:          0 HIT:          0 MISS:          0
cpu0_STLB PREFETCH REQUESTED:          0 ISSUED:          0 USEFUL:          0 USELESS:          0
cpu0_STLB AVERAGE MISS LATENCY: 152.9 cycles

DRAM Statistics

Channel 0 RQ ROW_BUFFER_HIT:      29598
  ROW_BUFFER_MISS:     165583
 AVG DBUS CONGESTED CYCLE: 3.924
WQ ROW_BUFFER_HIT: Channel 0 
  ROW_BUFFER_MISS:       3321
  FULL:      52122
