WARNING: physical memory size is smaller than virtual memory size.

*** ChampSim Multicore Out-of-Order Simulator ***
Warmup Instructions: 25000000
Simulation Instructions: 25000000
Number of CPUs: 1
Page size: 4096

Off-chip DRAM Size: 4 GiB Channels: 1 Width: 64-bit Data Race: 800 MT/s
Heartbeat CPU 0 instructions: 10000002 cycles: 2566508 heartbeat IPC: 3.896 cumulative IPC: 3.896 (Simulation time: 00 hr 00 min 48 sec)
Heartbeat CPU 0 instructions: 20000002 cycles: 5069425 heartbeat IPC: 3.995 cumulative IPC: 3.945 (Simulation time: 00 hr 01 min 38 sec)
Warmup finished CPU 0 instructions: 25000001 cycles: 6383300 cumulative IPC: 3.916 (Simulation time: 00 hr 02 min 05 sec)
Warmup complete CPU 0 instructions: 25000001 cycles: 6383300 cumulative IPC: 3.916 (Simulation time: 00 hr 02 min 05 sec)
Heartbeat CPU 0 instructions: 30000002 cycles: 8409499 heartbeat IPC: 2.994 cumulative IPC: 2.468 (Simulation time: 00 hr 02 min 43 sec)
Heartbeat CPU 0 instructions: 40000003 cycles: 18551530 heartbeat IPC: 0.986 cumulative IPC: 1.233 (Simulation time: 00 hr 04 min 51 sec)
Heartbeat CPU 0 instructions: 50000000 cycles: 27999724 heartbeat IPC: 1.058 cumulative IPC: 1.157 (Simulation time: 00 hr 06 min 46 sec)
Simulation finished CPU 0 instructions: 25000003 cycles: 21616426 cumulative IPC: 1.157 (Simulation time: 00 hr 06 min 46 sec)
Simulation complete CPU 0 instructions: 25000003 cycles: 21616426 cumulative IPC: 1.157 (Simulation time: 00 hr 06 min 46 sec)

ChampSim completed all CPUs

=== Simulation ===
CPU 0 runs ./traces/cactusADM_1495B.trace.xz
Region of Interest Statistics

CPU 0 cumulative IPC: 1.157 instructions: 25000003 cycles: 21616426
CPU 0 Branch Prediction Accuracy: 98.22% MPKI: 0.03736 Average ROB Occupancy at Mispredict: 275.1
Branch type MPKI
BRANCH_DIRECT_JUMP: 0
BRANCH_INDIRECT: 0
BRANCH_CONDITIONAL: 0.0374
BRANCH_DIRECT_CALL: 0
BRANCH_INDIRECT_CALL: 0
BRANCH_RETURN: 0

LLC TOTAL        ACCESS:     313757 HIT:      68983 MISS:     244774
LLC LOAD         ACCESS:      34854 HIT:       7970 MISS:      26884
LLC RFO          ACCESS:      67006 HIT:      11117 MISS:      55889
LLC PREFETCH     ACCESS:     133694 HIT:      30706 MISS:     102988
LLC WRITE        ACCESS:      67085 HIT:      19140 MISS:      47945
LLC TRANSLATION  ACCESS:      11118 HIT:         50 MISS:      11068
LLC PREFETCH REQUESTED:          0 ISSUED:          0 USEFUL:          0 USELESS:          0
LLC AVERAGE MISS LATENCY: 834.7 cycles
cpu0_DTLB TOTAL        ACCESS:    5766553 HIT:    5217661 MISS:     548892
cpu0_DTLB LOAD         ACCESS:    5766553 HIT:    5217661 MISS:     548892
cpu0_DTLB RFO          ACCESS:          0 HIT:          0 MISS:          0
cpu0_DTLB PREFETCH     ACCESS:          0 HIT:          0 MISS:          0
cpu0_DTLB WRITE        ACCESS:          0 HIT:          0 MISS:          0
cpu0_DTLB TRANSLATION  ACCESS:          0 HIT:          0 MISS:          0
cpu0_DTLB PREFETCH REQUESTED:          0 ISSUED:          0 USEFUL:          0 USELESS:          0
cpu0_DTLB AVERAGE MISS LATENCY: 30.28 cycles
cpu0_ITLB TOTAL        ACCESS:    3533547 HIT:    3533547 MISS:          0
cpu0_ITLB LOAD         ACCESS:    3533547 HIT:    3533547 MISS:          0
cpu0_ITLB RFO          ACCESS:          0 HIT:          0 MISS:          0
cpu0_ITLB PREFETCH     ACCESS:          0 HIT:          0 MISS:          0
cpu0_ITLB WRITE        ACCESS:          0 HIT:          0 MISS:          0
cpu0_ITLB TRANSLATION  ACCESS:          0 HIT:          0 MISS:          0
cpu0_ITLB PREFETCH REQUESTED:          0 ISSUED:          0 USEFUL:          0 USELESS:          0
cpu0_ITLB AVERAGE MISS LATENCY: -nan cycles
cpu0_L1D TOTAL        ACCESS:    9911904 HIT:    9098585 MISS:     813319
cpu0_L1D LOAD         ACCESS:    5819380 HIT:    5586367 MISS:     233013
cpu0_L1D RFO          ACCESS:          0 HIT:          0 MISS:          0
cpu0_L1D PREFETCH     ACCESS:     940407 HIT:     805109 MISS:     135298
cpu0_L1D WRITE        ACCESS:    2915994 HIT:    2598136 MISS:     317858
cpu0_L1D TRANSLATION  ACCESS:     236123 HIT:     108973 MISS:     127150
cpu0_L1D PREFETCH REQUESTED:    6347267 ISSUED:     940407 USEFUL:      92901 USELESS:       4391
cpu0_L1D AVERAGE MISS LATENCY: 171.8 cycles
cpu0_L1I TOTAL        ACCESS:    4636858 HIT:    4636858 MISS:          0
cpu0_L1I LOAD         ACCESS:    4636858 HIT:    4636858 MISS:          0
cpu0_L1I RFO          ACCESS:          0 HIT:          0 MISS:          0
cpu0_L1I PREFETCH     ACCESS:          0 HIT:          0 MISS:          0
cpu0_L1I WRITE        ACCESS:          0 HIT:          0 MISS:          0
cpu0_L1I TRANSLATION  ACCESS:          0 HIT:          0 MISS:          0
cpu0_L1I PREFETCH REQUESTED:          0 ISSUED:          0 USEFUL:          0 USELESS:          0
cpu0_L1I AVERAGE MISS LATENCY: -nan cycles
cpu0_L2C TOTAL        ACCESS:     879070 HIT:     629264 MISS:     249806
cpu0_L2C LOAD         ACCESS:     195458 HIT:     160007 MISS:      35451
cpu0_L2C RFO          ACCESS:      75041 HIT:       8035 MISS:      67006
cpu0_L2C PREFETCH     ACCESS:     403949 HIT:     267811 MISS:     136138
cpu0_L2C WRITE        ACCESS:      77884 HIT:      77791 MISS:         93
cpu0_L2C TRANSLATION  ACCESS:     126738 HIT:     115620 MISS:      11118
cpu0_L2C PREFETCH REQUESTED:     306839 ISSUED:     306657 USEFUL:      71648 USELESS:        416
cpu0_L2C AVERAGE MISS LATENCY: 808.6 cycles
cpu0_STLB TOTAL        ACCESS:     399641 HIT:     271796 MISS:     127845
cpu0_STLB LOAD         ACCESS:     399641 HIT:     271796 MISS:     127845
cpu0_STLB RFO          ACCESS:          0 HIT:          0 MISS:          0
cpu0_STLB PREFETCH     ACCESS:          0 HIT:          0 MISS:          0
cpu0_STLB WRITE        ACCESS:          0 HIT:          0 MISS:          0
cpu0_STLB TRANSLATION  ACCESS:          0 HIT:          0 MISS:          0
cpu0_STLB PREFETCH REQUESTED:          0 ISSUED:          0 USEFUL:          0 USELESS:          0
cpu0_STLB AVERAGE MISS LATENCY: 145.7 cycles

DRAM Statistics

Channel 0 RQ ROW_BUFFER_HIT:      29899
  ROW_BUFFER_MISS:     164032
 AVG DBUS CONGESTED CYCLE: 3.926
WQ ROW_BUFFER_HIT: Channel 0 
  ROW_BUFFER_MISS:       3323
  FULL:      52960
