WARNING: physical memory size is smaller than virtual memory size.

*** ChampSim Multicore Out-of-Order Simulator ***
Warmup Instructions: 25000000
Simulation Instructions: 25000000
Number of CPUs: 1
Page size: 4096

Off-chip DRAM Size: 4 GiB Channels: 1 Width: 64-bit Data Race: 800 MT/s
Heartbeat CPU 0 instructions: 10000003 cycles: 2500428 heartbeat IPC: 3.999 cumulative IPC: 3.999 (Simulation time: 00 hr 00 min 33 sec)
Heartbeat CPU 0 instructions: 20000002 cycles: 5000618 heartbeat IPC: 4 cumulative IPC: 4 (Simulation time: 00 hr 01 min 07 sec)
Warmup finished CPU 0 instructions: 25000002 cycles: 6250822 cumulative IPC: 3.999 (Simulation time: 00 hr 01 min 24 sec)
Warmup complete CPU 0 instructions: 25000002 cycles: 6250822 cumulative IPC: 3.999 (Simulation time: 00 hr 01 min 24 sec)
Heartbeat CPU 0 instructions: 30000000 cycles: 8453809 heartbeat IPC: 2.896 cumulative IPC: 2.27 (Simulation time: 00 hr 01 min 55 sec)
Heartbeat CPU 0 instructions: 40000002 cycles: 14359503 heartbeat IPC: 1.693 cumulative IPC: 1.85 (Simulation time: 00 hr 03 min 14 sec)
Heartbeat CPU 0 instructions: 50000000 cycles: 17986802 heartbeat IPC: 2.757 cumulative IPC: 2.13 (Simulation time: 00 hr 04 min 09 sec)
Simulation finished CPU 0 instructions: 25000002 cycles: 11735982 cumulative IPC: 2.13 (Simulation time: 00 hr 04 min 09 sec)
Simulation complete CPU 0 instructions: 25000002 cycles: 11735982 cumulative IPC: 2.13 (Simulation time: 00 hr 04 min 09 sec)

ChampSim completed all CPUs

=== Simulation ===
CPU 0 runs ./traces/calculix_2655B.trace.xz
Region of Interest Statistics

CPU 0 cumulative IPC: 2.13 instructions: 25000002 cycles: 11735982
CPU 0 Branch Prediction Accuracy: 98.05% MPKI: 0.7955 Average ROB Occupancy at Mispredict: 287.6
Branch type MPKI
BRANCH_DIRECT_JUMP: 0.00068
BRANCH_INDIRECT: 0
BRANCH_CONDITIONAL: 0.795
BRANCH_DIRECT_CALL: 0
BRANCH_INDIRECT_CALL: 0
BRANCH_RETURN: 4e-05

LLC TOTAL        ACCESS:     237824 HIT:     127079 MISS:     110745
LLC LOAD         ACCESS:      28918 HIT:      15415 MISS:      13503
LLC RFO          ACCESS:        111 HIT:         20 MISS:         91
LLC PREFETCH     ACCESS:     183588 HIT:      91292 MISS:      92296
LLC WRITE        ACCESS:      25026 HIT:      20316 MISS:       4710
LLC TRANSLATION  ACCESS:        181 HIT:         36 MISS:        145
LLC PREFETCH REQUESTED:          0 ISSUED:          0 USEFUL:          0 USELESS:          0
LLC AVERAGE MISS LATENCY: 492.2 cycles
cpu0_DTLB TOTAL        ACCESS:    3962940 HIT:    3949365 MISS:      13575
cpu0_DTLB LOAD         ACCESS:    3962940 HIT:    3949365 MISS:      13575
cpu0_DTLB RFO          ACCESS:          0 HIT:          0 MISS:          0
cpu0_DTLB PREFETCH     ACCESS:          0 HIT:          0 MISS:          0
cpu0_DTLB WRITE        ACCESS:          0 HIT:          0 MISS:          0
cpu0_DTLB TRANSLATION  ACCESS:          0 HIT:          0 MISS:          0
cpu0_DTLB PREFETCH REQUESTED:          0 ISSUED:          0 USEFUL:          0 USELESS:          0
cpu0_DTLB AVERAGE MISS LATENCY: 10.52 cycles
cpu0_ITLB TOTAL        ACCESS:        924 HIT:        924 MISS:          0
cpu0_ITLB LOAD         ACCESS:        924 HIT:        924 MISS:          0
cpu0_ITLB RFO          ACCESS:          0 HIT:          0 MISS:          0
cpu0_ITLB PREFETCH     ACCESS:          0 HIT:          0 MISS:          0
cpu0_ITLB WRITE        ACCESS:          0 HIT:          0 MISS:          0
cpu0_ITLB TRANSLATION  ACCESS:          0 HIT:          0 MISS:          0
cpu0_ITLB PREFETCH REQUESTED:          0 ISSUED:          0 USEFUL:          0 USELESS:          0
cpu0_ITLB AVERAGE MISS LATENCY: -nan cycles
cpu0_L1D TOTAL        ACCESS:    9139830 HIT:    7821667 MISS:    1318163
cpu0_L1D LOAD         ACCESS:    4704258 HIT:    4173701 MISS:     530557
cpu0_L1D RFO          ACCESS:          0 HIT:          0 MISS:          0
cpu0_L1D PREFETCH     ACCESS:    4057592 HIT:    3271103 MISS:     786489
cpu0_L1D WRITE        ACCESS:     377433 HIT:     376693 MISS:        740
cpu0_L1D TRANSLATION  ACCESS:        547 HIT:        170 MISS:        377
cpu0_L1D PREFETCH REQUESTED:    4704489 ISSUED:    4057597 USEFUL:     251862 USELESS:       8486
cpu0_L1D AVERAGE MISS LATENCY: 13.97 cycles
cpu0_L1I TOTAL        ACCESS:       1012 HIT:       1012 MISS:          0
cpu0_L1I LOAD         ACCESS:       1012 HIT:       1012 MISS:          0
cpu0_L1I RFO          ACCESS:          0 HIT:          0 MISS:          0
cpu0_L1I PREFETCH     ACCESS:          0 HIT:          0 MISS:          0
cpu0_L1I WRITE        ACCESS:          0 HIT:          0 MISS:          0
cpu0_L1I TRANSLATION  ACCESS:          0 HIT:          0 MISS:          0
cpu0_L1I PREFETCH REQUESTED:          0 ISSUED:          0 USEFUL:          0 USELESS:          0
cpu0_L1I AVERAGE MISS LATENCY: -nan cycles
cpu0_L2C TOTAL        ACCESS:     495655 HIT:     275801 MISS:     219854
cpu0_L2C LOAD         ACCESS:      57041 HIT:      26555 MISS:      30486
cpu0_L2C RFO          ACCESS:        366 HIT:        255 MISS:        111
cpu0_L2C PREFETCH     ACCESS:     408097 HIT:     219070 MISS:     189027
cpu0_L2C WRITE        ACCESS:      29776 HIT:      29727 MISS:         49
cpu0_L2C TRANSLATION  ACCESS:        375 HIT:        194 MISS:        181
cpu0_L2C PREFETCH REQUESTED:     147745 ISSUED:     147745 USEFUL:      82178 USELESS:       3743
cpu0_L2C AVERAGE MISS LATENCY: 262 cycles
cpu0_STLB TOTAL        ACCESS:       4217 HIT:       3678 MISS:        539
cpu0_STLB LOAD         ACCESS:       4217 HIT:       3678 MISS:        539
cpu0_STLB RFO          ACCESS:          0 HIT:          0 MISS:          0
cpu0_STLB PREFETCH     ACCESS:          0 HIT:          0 MISS:          0
cpu0_STLB WRITE        ACCESS:          0 HIT:          0 MISS:          0
cpu0_STLB TRANSLATION  ACCESS:          0 HIT:          0 MISS:          0
cpu0_STLB PREFETCH REQUESTED:          0 ISSUED:          0 USEFUL:          0 USELESS:          0
cpu0_STLB AVERAGE MISS LATENCY: 326.9 cycles

DRAM Statistics

Channel 0 RQ ROW_BUFFER_HIT:      83785
  ROW_BUFFER_MISS:      22130
 AVG DBUS CONGESTED CYCLE: 3.889
WQ ROW_BUFFER_HIT: Channel 0 
  ROW_BUFFER_MISS:       2245
  FULL:       8068
