WARNING: physical memory size is smaller than virtual memory size.

*** ChampSim Multicore Out-of-Order Simulator ***
Warmup Instructions: 25000000
Simulation Instructions: 25000000
Number of CPUs: 1
Page size: 4096

Off-chip DRAM Size: 4 GiB Channels: 1 Width: 64-bit Data Race: 800 MT/s
Heartbeat CPU 0 instructions: 10000000 cycles: 2764407 heartbeat IPC: 3.617 cumulative IPC: 3.617 (Simulation time: 00 hr 00 min 45 sec)
Heartbeat CPU 0 instructions: 20000001 cycles: 5345380 heartbeat IPC: 3.875 cumulative IPC: 3.742 (Simulation time: 00 hr 01 min 32 sec)
Warmup finished CPU 0 instructions: 25000003 cycles: 6778576 cumulative IPC: 3.688 (Simulation time: 00 hr 01 min 57 sec)
Warmup complete CPU 0 instructions: 25000003 cycles: 6778576 cumulative IPC: 3.688 (Simulation time: 00 hr 01 min 57 sec)
Heartbeat CPU 0 instructions: 30000003 cycles: 27109181 heartbeat IPC: 0.4595 cumulative IPC: 0.2459 (Simulation time: 00 hr 04 min 36 sec)
Heartbeat CPU 0 instructions: 40000002 cycles: 62916600 heartbeat IPC: 0.2793 cumulative IPC: 0.2672 (Simulation time: 00 hr 09 min 16 sec)
Heartbeat CPU 0 instructions: 50000000 cycles: 76087512 heartbeat IPC: 0.7592 cumulative IPC: 0.3607 (Simulation time: 00 hr 10 min 58 sec)
Simulation finished CPU 0 instructions: 25000000 cycles: 69308949 cumulative IPC: 0.3607 (Simulation time: 00 hr 10 min 58 sec)
Simulation complete CPU 0 instructions: 25000000 cycles: 69308949 cumulative IPC: 0.3607 (Simulation time: 00 hr 10 min 58 sec)

ChampSim completed all CPUs

=== Simulation ===
CPU 0 runs ./traces/gcc_13B.trace.xz
Region of Interest Statistics

CPU 0 cumulative IPC: 0.3607 instructions: 25000000 cycles: 69308949
CPU 0 Branch Prediction Accuracy: 87.06% MPKI: 28.41 Average ROB Occupancy at Mispredict: 24.5
Branch type MPKI
BRANCH_DIRECT_JUMP: 0.00096
BRANCH_INDIRECT: 0
BRANCH_CONDITIONAL: 27.4
BRANCH_DIRECT_CALL: 0.00084
BRANCH_INDIRECT_CALL: 0.002
BRANCH_RETURN: 1

LLC TOTAL        ACCESS:     916361 HIT:      77186 MISS:     839175
LLC LOAD         ACCESS:     277165 HIT:      36053 MISS:     241112
LLC RFO          ACCESS:      76875 HIT:       2186 MISS:      74689
LLC PREFETCH     ACCESS:     349777 HIT:      26414 MISS:     323363
LLC WRITE        ACCESS:     205179 HIT:      11956 MISS:     193223
LLC TRANSLATION  ACCESS:       7365 HIT:        577 MISS:       6788
LLC PREFETCH REQUESTED:          0 ISSUED:          0 USEFUL:          0 USELESS:          0
LLC AVERAGE MISS LATENCY: 665.6 cycles
cpu0_DTLB TOTAL        ACCESS:    6714297 HIT:    6634918 MISS:      79379
cpu0_DTLB LOAD         ACCESS:    6714297 HIT:    6634918 MISS:      79379
cpu0_DTLB RFO          ACCESS:          0 HIT:          0 MISS:          0
cpu0_DTLB PREFETCH     ACCESS:          0 HIT:          0 MISS:          0
cpu0_DTLB WRITE        ACCESS:          0 HIT:          0 MISS:          0
cpu0_DTLB TRANSLATION  ACCESS:          0 HIT:          0 MISS:          0
cpu0_DTLB PREFETCH REQUESTED:          0 ISSUED:          0 USEFUL:          0 USELESS:          0
cpu0_DTLB AVERAGE MISS LATENCY: 109.1 cycles
cpu0_ITLB TOTAL        ACCESS:        427 HIT:        412 MISS:         15
cpu0_ITLB LOAD         ACCESS:        427 HIT:        412 MISS:         15
cpu0_ITLB RFO          ACCESS:          0 HIT:          0 MISS:          0
cpu0_ITLB PREFETCH     ACCESS:          0 HIT:          0 MISS:          0
cpu0_ITLB WRITE        ACCESS:          0 HIT:          0 MISS:          0
cpu0_ITLB TRANSLATION  ACCESS:          0 HIT:          0 MISS:          0
cpu0_ITLB PREFETCH REQUESTED:          0 ISSUED:          0 USEFUL:          0 USELESS:          0
cpu0_ITLB AVERAGE MISS LATENCY: 532.7 cycles
cpu0_L1D TOTAL        ACCESS:   13038216 HIT:   10627576 MISS:    2410640
cpu0_L1D LOAD         ACCESS:    5241964 HIT:    4052233 MISS:    1189731
cpu0_L1D RFO          ACCESS:          0 HIT:          0 MISS:          0
cpu0_L1D PREFETCH     ACCESS:    4180433 HIT:    3449752 MISS:     730681
cpu0_L1D WRITE        ACCESS:    3593910 HIT:    3118900 MISS:     475010
cpu0_L1D TRANSLATION  ACCESS:      21909 HIT:       6691 MISS:      15218
cpu0_L1D PREFETCH REQUESTED:   13864665 ISSUED:    4180432 USEFUL:     115534 USELESS:     123288
cpu0_L1D AVERAGE MISS LATENCY: 178.3 cycles
cpu0_L1I TOTAL        ACCESS:        494 HIT:        424 MISS:         70
cpu0_L1I LOAD         ACCESS:        494 HIT:        424 MISS:         70
cpu0_L1I RFO          ACCESS:          0 HIT:          0 MISS:          0
cpu0_L1I PREFETCH     ACCESS:          0 HIT:          0 MISS:          0
cpu0_L1I WRITE        ACCESS:          0 HIT:          0 MISS:          0
cpu0_L1I TRANSLATION  ACCESS:          0 HIT:          0 MISS:          0
cpu0_L1I PREFETCH REQUESTED:          0 ISSUED:          0 USEFUL:          0 USELESS:          0
cpu0_L1I AVERAGE MISS LATENCY: 257.4 cycles
cpu0_L2C TOTAL        ACCESS:    1095195 HIT:     295304 MISS:     799891
cpu0_L2C LOAD         ACCESS:     339278 HIT:      39468 MISS:     299810
cpu0_L2C RFO          ACCESS:      82324 HIT:       3925 MISS:      78399
cpu0_L2C PREFETCH     ACCESS:     452186 HIT:      37891 MISS:     414295
cpu0_L2C WRITE        ACCESS:     206220 HIT:     206198 MISS:         22
cpu0_L2C TRANSLATION  ACCESS:      15187 HIT:       7822 MISS:       7365
cpu0_L2C PREFETCH REQUESTED:     213368 ISSUED:     213354 USEFUL:      66414 USELESS:      26921
cpu0_L2C AVERAGE MISS LATENCY: 637.5 cycles
cpu0_STLB TOTAL        ACCESS:      30391 HIT:       8591 MISS:      21800
cpu0_STLB LOAD         ACCESS:      30391 HIT:       8591 MISS:      21800
cpu0_STLB RFO          ACCESS:          0 HIT:          0 MISS:          0
cpu0_STLB PREFETCH     ACCESS:          0 HIT:          0 MISS:          0
cpu0_STLB WRITE        ACCESS:          0 HIT:          0 MISS:          0
cpu0_STLB TRANSLATION  ACCESS:          0 HIT:          0 MISS:          0
cpu0_STLB PREFETCH REQUESTED:          0 ISSUED:          0 USEFUL:          0 USELESS:          0
cpu0_STLB AVERAGE MISS LATENCY: 524.5 cycles

DRAM Statistics

Channel 0 RQ ROW_BUFFER_HIT:     235845
  ROW_BUFFER_MISS:     386888
 AVG DBUS CONGESTED CYCLE: 3.895
WQ ROW_BUFFER_HIT: Channel 0 
  ROW_BUFFER_MISS:      27909
  FULL:     168882
