WARNING: physical memory size is smaller than virtual memory size.

*** ChampSim Multicore Out-of-Order Simulator ***
Warmup Instructions: 25000000
Simulation Instructions: 25000000
Number of CPUs: 1
Page size: 4096

Off-chip DRAM Size: 4 GiB Channels: 1 Width: 64-bit Data Race: 800 MT/s
Heartbeat CPU 0 instructions: 10000002 cycles: 2500121 heartbeat IPC: 4 cumulative IPC: 4 (Simulation time: 00 hr 00 min 45 sec)
Heartbeat CPU 0 instructions: 20000002 cycles: 5000121 heartbeat IPC: 4 cumulative IPC: 4 (Simulation time: 00 hr 01 min 33 sec)
Warmup finished CPU 0 instructions: 25000002 cycles: 6250122 cumulative IPC: 4 (Simulation time: 00 hr 01 min 57 sec)
Warmup complete CPU 0 instructions: 25000002 cycles: 6250122 cumulative IPC: 4 (Simulation time: 00 hr 01 min 57 sec)
Heartbeat CPU 0 instructions: 30000003 cycles: 28266492 heartbeat IPC: 0.4298 cumulative IPC: 0.2271 (Simulation time: 00 hr 05 min 38 sec)
Heartbeat CPU 0 instructions: 40000000 cycles: 72343603 heartbeat IPC: 0.2269 cumulative IPC: 0.227 (Simulation time: 00 hr 12 min 47 sec)
Heartbeat CPU 0 instructions: 50000002 cycles: 116460263 heartbeat IPC: 0.2267 cumulative IPC: 0.2268 (Simulation time: 00 hr 19 min 55 sec)
Simulation finished CPU 0 instructions: 25000000 cycles: 110210142 cumulative IPC: 0.2268 (Simulation time: 00 hr 19 min 55 sec)
Simulation complete CPU 0 instructions: 25000000 cycles: 110210142 cumulative IPC: 0.2268 (Simulation time: 00 hr 19 min 55 sec)

ChampSim completed all CPUs

=== Simulation ===
CPU 0 runs ./traces/GemsFDTD_712B.trace.xz
Region of Interest Statistics

CPU 0 cumulative IPC: 0.2268 instructions: 25000000 cycles: 110210142
CPU 0 Branch Prediction Accuracy: 97.29% MPKI: 0.5323 Average ROB Occupancy at Mispredict: 310.3
Branch type MPKI
BRANCH_DIRECT_JUMP: 0
BRANCH_INDIRECT: 0
BRANCH_CONDITIONAL: 0.532
BRANCH_DIRECT_CALL: 0
BRANCH_INDIRECT_CALL: 0
BRANCH_RETURN: 0

LLC TOTAL        ACCESS:    1381018 HIT:      28799 MISS:    1352219
LLC LOAD         ACCESS:     338373 HIT:       7312 MISS:     331061
LLC RFO          ACCESS:          0 HIT:          0 MISS:          0
LLC PREFETCH     ACCESS:     682816 HIT:       9284 MISS:     673532
LLC WRITE        ACCESS:     358702 HIT:      12203 MISS:     346499
LLC TRANSLATION  ACCESS:       1127 HIT:          0 MISS:       1127
LLC PREFETCH REQUESTED:          0 ISSUED:          0 USEFUL:          0 USELESS:          0
LLC AVERAGE MISS LATENCY: 1218 cycles
cpu0_DTLB TOTAL        ACCESS:    7067377 HIT:    7018495 MISS:      48882
cpu0_DTLB LOAD         ACCESS:    7067377 HIT:    7018495 MISS:      48882
cpu0_DTLB RFO          ACCESS:          0 HIT:          0 MISS:          0
cpu0_DTLB PREFETCH     ACCESS:          0 HIT:          0 MISS:          0
cpu0_DTLB WRITE        ACCESS:          0 HIT:          0 MISS:          0
cpu0_DTLB TRANSLATION  ACCESS:          0 HIT:          0 MISS:          0
cpu0_DTLB PREFETCH REQUESTED:          0 ISSUED:          0 USEFUL:          0 USELESS:          0
cpu0_DTLB AVERAGE MISS LATENCY: 62.37 cycles
cpu0_ITLB TOTAL        ACCESS:          0 HIT:          0 MISS:          0
cpu0_ITLB LOAD         ACCESS:          0 HIT:          0 MISS:          0
cpu0_ITLB RFO          ACCESS:          0 HIT:          0 MISS:          0
cpu0_ITLB PREFETCH     ACCESS:          0 HIT:          0 MISS:          0
cpu0_ITLB WRITE        ACCESS:          0 HIT:          0 MISS:          0
cpu0_ITLB TRANSLATION  ACCESS:          0 HIT:          0 MISS:          0
cpu0_ITLB PREFETCH REQUESTED:          0 ISSUED:          0 USEFUL:          0 USELESS:          0
cpu0_ITLB AVERAGE MISS LATENCY: -nan cycles
cpu0_L1D TOTAL        ACCESS:   11470699 HIT:    6069242 MISS:    5401457
cpu0_L1D LOAD         ACCESS:    6509836 HIT:    2875712 MISS:    3634124
cpu0_L1D RFO          ACCESS:          0 HIT:          0 MISS:          0
cpu0_L1D PREFETCH     ACCESS:    2560539 HIT:     805481 MISS:    1755058
cpu0_L1D WRITE        ACCESS:    2387982 HIT:    2387958 MISS:         24
cpu0_L1D TRANSLATION  ACCESS:      12342 HIT:         91 MISS:      12251
cpu0_L1D PREFETCH REQUESTED:   15201664 ISSUED:    2560539 USEFUL:     597076 USELESS:      40785
cpu0_L1D AVERAGE MISS LATENCY: 153.9 cycles
cpu0_L1I TOTAL        ACCESS:          0 HIT:          0 MISS:          0
cpu0_L1I LOAD         ACCESS:          0 HIT:          0 MISS:          0
cpu0_L1I RFO          ACCESS:          0 HIT:          0 MISS:          0
cpu0_L1I PREFETCH     ACCESS:          0 HIT:          0 MISS:          0
cpu0_L1I WRITE        ACCESS:          0 HIT:          0 MISS:          0
cpu0_L1I TRANSLATION  ACCESS:          0 HIT:          0 MISS:          0
cpu0_L1I PREFETCH REQUESTED:          0 ISSUED:          0 USEFUL:          0 USELESS:          0
cpu0_L1I AVERAGE MISS LATENCY: -nan cycles
cpu0_L2C TOTAL        ACCESS:    1484153 HIT:     435791 MISS:    1048362
cpu0_L2C LOAD         ACCESS:     364379 HIT:      21481 MISS:     342898
cpu0_L2C RFO          ACCESS:          6 HIT:          6 MISS:          0
cpu0_L2C PREFETCH     ACCESS:     747502 HIT:      43236 MISS:     704266
cpu0_L2C WRITE        ACCESS:     360015 HIT:     359944 MISS:         71
cpu0_L2C TRANSLATION  ACCESS:      12251 HIT:      11124 MISS:       1127
cpu0_L2C PREFETCH REQUESTED:     109645 ISSUED:     109645 USEFUL:      54282 USELESS:      11256
cpu0_L2C AVERAGE MISS LATENCY: 1543 cycles
cpu0_STLB TOTAL        ACCESS:      16424 HIT:       4111 MISS:      12313
cpu0_STLB LOAD         ACCESS:      16424 HIT:       4111 MISS:      12313
cpu0_STLB RFO          ACCESS:          0 HIT:          0 MISS:          0
cpu0_STLB PREFETCH     ACCESS:          0 HIT:          0 MISS:          0
cpu0_STLB WRITE        ACCESS:          0 HIT:          0 MISS:          0
cpu0_STLB TRANSLATION  ACCESS:          0 HIT:          0 MISS:          0
cpu0_STLB PREFETCH REQUESTED:          0 ISSUED:          0 USEFUL:          0 USELESS:          0
cpu0_STLB AVERAGE MISS LATENCY: 432 cycles

DRAM Statistics

Channel 0 RQ ROW_BUFFER_HIT:     556432
  ROW_BUFFER_MISS:     437904
 AVG DBUS CONGESTED CYCLE: 3.853
WQ ROW_BUFFER_HIT: Channel 0 
  ROW_BUFFER_MISS:     116543
  FULL:     240947
