WARNING: physical memory size is smaller than virtual memory size.

*** ChampSim Multicore Out-of-Order Simulator ***
Warmup Instructions: 25000000
Simulation Instructions: 25000000
Number of CPUs: 1
Page size: 4096

Off-chip DRAM Size: 4 GiB Channels: 1 Width: 64-bit Data Race: 800 MT/s
Heartbeat CPU 0 instructions: 10000003 cycles: 2500113 heartbeat IPC: 4 cumulative IPC: 4 (Simulation time: 00 hr 00 min 43 sec)
Heartbeat CPU 0 instructions: 20000000 cycles: 5001251 heartbeat IPC: 3.998 cumulative IPC: 3.999 (Simulation time: 00 hr 01 min 28 sec)
Warmup finished CPU 0 instructions: 25000002 cycles: 6251546 cumulative IPC: 3.999 (Simulation time: 00 hr 01 min 52 sec)
Warmup complete CPU 0 instructions: 25000002 cycles: 6251546 cumulative IPC: 3.999 (Simulation time: 00 hr 01 min 52 sec)
Heartbeat CPU 0 instructions: 30000001 cycles: 9859848 heartbeat IPC: 2.058 cumulative IPC: 1.386 (Simulation time: 00 hr 02 min 42 sec)
Heartbeat CPU 0 instructions: 40000003 cycles: 12607452 heartbeat IPC: 3.64 cumulative IPC: 2.36 (Simulation time: 00 hr 03 min 45 sec)
Heartbeat CPU 0 instructions: 50000003 cycles: 18680240 heartbeat IPC: 1.647 cumulative IPC: 2.011 (Simulation time: 00 hr 05 min 09 sec)
Simulation finished CPU 0 instructions: 25000001 cycles: 12428695 cumulative IPC: 2.011 (Simulation time: 00 hr 05 min 09 sec)
Simulation complete CPU 0 instructions: 25000001 cycles: 12428695 cumulative IPC: 2.011 (Simulation time: 00 hr 05 min 09 sec)

ChampSim completed all CPUs

=== Simulation ===
CPU 0 runs ./traces/hmmer_397B.trace.xz
Region of Interest Statistics

CPU 0 cumulative IPC: 2.011 instructions: 25000001 cycles: 12428695
CPU 0 Branch Prediction Accuracy: 99.17% MPKI: 0.3152 Average ROB Occupancy at Mispredict: 243.9
Branch type MPKI
BRANCH_DIRECT_JUMP: 8e-05
BRANCH_INDIRECT: 0.0002
BRANCH_CONDITIONAL: 0.315
BRANCH_DIRECT_CALL: 0
BRANCH_INDIRECT_CALL: 0
BRANCH_RETURN: 0.00012

LLC TOTAL        ACCESS:     158664 HIT:      63418 MISS:      95246
LLC LOAD         ACCESS:       1802 HIT:        515 MISS:       1287
LLC RFO          ACCESS:      75236 HIT:      29293 MISS:      45943
LLC PREFETCH     ACCESS:       6675 HIT:       2765 MISS:       3910
LLC WRITE        ACCESS:      74943 HIT:      30845 MISS:      44098
LLC TRANSLATION  ACCESS:          8 HIT:          0 MISS:          8
LLC PREFETCH REQUESTED:          0 ISSUED:          0 USEFUL:          0 USELESS:          0
LLC AVERAGE MISS LATENCY: 1252 cycles
cpu0_DTLB TOTAL        ACCESS:    5791334 HIT:    5787458 MISS:       3876
cpu0_DTLB LOAD         ACCESS:    5791334 HIT:    5787458 MISS:       3876
cpu0_DTLB RFO          ACCESS:          0 HIT:          0 MISS:          0
cpu0_DTLB PREFETCH     ACCESS:          0 HIT:          0 MISS:          0
cpu0_DTLB WRITE        ACCESS:          0 HIT:          0 MISS:          0
cpu0_DTLB TRANSLATION  ACCESS:          0 HIT:          0 MISS:          0
cpu0_DTLB PREFETCH REQUESTED:          0 ISSUED:          0 USEFUL:          0 USELESS:          0
cpu0_DTLB AVERAGE MISS LATENCY: 15.18 cycles
cpu0_ITLB TOTAL        ACCESS:        659 HIT:        645 MISS:         14
cpu0_ITLB LOAD         ACCESS:        659 HIT:        645 MISS:         14
cpu0_ITLB RFO          ACCESS:          0 HIT:          0 MISS:          0
cpu0_ITLB PREFETCH     ACCESS:          0 HIT:          0 MISS:          0
cpu0_ITLB WRITE        ACCESS:          0 HIT:          0 MISS:          0
cpu0_ITLB TRANSLATION  ACCESS:          0 HIT:          0 MISS:          0
cpu0_ITLB PREFETCH REQUESTED:          0 ISSUED:          0 USEFUL:          0 USELESS:          0
cpu0_ITLB AVERAGE MISS LATENCY: 1.214 cycles
cpu0_L1D TOTAL        ACCESS:    8477901 HIT:    6136165 MISS:    2341736
cpu0_L1D LOAD         ACCESS:    4500199 HIT:    4428081 MISS:      72118
cpu0_L1D RFO          ACCESS:          0 HIT:          0 MISS:          0
cpu0_L1D PREFETCH     ACCESS:     316127 HIT:     287912 MISS:      28215
cpu0_L1D WRITE        ACCESS:    3661320 HIT:    1420164 MISS:    2241156
cpu0_L1D TRANSLATION  ACCESS:        255 HIT:          8 MISS:        247
cpu0_L1D PREFETCH REQUESTED:    5602000 ISSUED:     316127 USEFUL:       6121 USELESS:       3126
cpu0_L1D AVERAGE MISS LATENCY: 40.8 cycles
cpu0_L1I TOTAL        ACCESS:        738 HIT:        712 MISS:         26
cpu0_L1I LOAD         ACCESS:        738 HIT:        712 MISS:         26
cpu0_L1I RFO          ACCESS:          0 HIT:          0 MISS:          0
cpu0_L1I PREFETCH     ACCESS:          0 HIT:          0 MISS:          0
cpu0_L1I WRITE        ACCESS:          0 HIT:          0 MISS:          0
cpu0_L1I TRANSLATION  ACCESS:          0 HIT:          0 MISS:          0
cpu0_L1I PREFETCH REQUESTED:          0 ISSUED:          0 USEFUL:          0 USELESS:          0
cpu0_L1I AVERAGE MISS LATENCY: 627.2 cycles
cpu0_L2C TOTAL        ACCESS:     306286 HIT:     221282 MISS:      85004
cpu0_L2C LOAD         ACCESS:      52352 HIT:      50270 MISS:       2082
cpu0_L2C RFO          ACCESS:      75247 HIT:         11 MISS:      75236
cpu0_L2C PREFETCH     ACCESS:     103464 HIT:      95790 MISS:       7674
cpu0_L2C WRITE        ACCESS:      74976 HIT:      74972 MISS:          4
cpu0_L2C TRANSLATION  ACCESS:        247 HIT:        239 MISS:          8
cpu0_L2C PREFETCH REQUESTED:      94215 ISSUED:      94215 USEFUL:       3156 USELESS:        244
cpu0_L2C AVERAGE MISS LATENCY: 1417 cycles
cpu0_STLB TOTAL        ACCESS:       1669 HIT:       1414 MISS:        255
cpu0_STLB LOAD         ACCESS:       1669 HIT:       1414 MISS:        255
cpu0_STLB RFO          ACCESS:          0 HIT:          0 MISS:          0
cpu0_STLB PREFETCH     ACCESS:          0 HIT:          0 MISS:          0
cpu0_STLB WRITE        ACCESS:          0 HIT:          0 MISS:          0
cpu0_STLB TRANSLATION  ACCESS:          0 HIT:          0 MISS:          0
cpu0_STLB PREFETCH REQUESTED:          0 ISSUED:          0 USEFUL:          0 USELESS:          0
cpu0_STLB AVERAGE MISS LATENCY: 293.1 cycles

DRAM Statistics

Channel 0 RQ ROW_BUFFER_HIT:      24308
  ROW_BUFFER_MISS:      26779
 AVG DBUS CONGESTED CYCLE: 3.936
WQ ROW_BUFFER_HIT: Channel 0 
  ROW_BUFFER_MISS:      12258
  FULL:      32694
