WARNING: physical memory size is smaller than virtual memory size.

*** ChampSim Multicore Out-of-Order Simulator ***
Warmup Instructions: 25000000
Simulation Instructions: 25000000
Number of CPUs: 1
Page size: 4096

Off-chip DRAM Size: 4 GiB Channels: 1 Width: 64-bit Data Race: 800 MT/s
Heartbeat CPU 0 instructions: 10000000 cycles: 2526415 heartbeat IPC: 3.958 cumulative IPC: 3.958 (Simulation time: 00 hr 00 min 43 sec)
Heartbeat CPU 0 instructions: 20000001 cycles: 5052535 heartbeat IPC: 3.959 cumulative IPC: 3.958 (Simulation time: 00 hr 01 min 27 sec)
Warmup finished CPU 0 instructions: 25000000 cycles: 6315602 cumulative IPC: 3.958 (Simulation time: 00 hr 01 min 48 sec)
Warmup complete CPU 0 instructions: 25000000 cycles: 6315602 cumulative IPC: 3.958 (Simulation time: 00 hr 01 min 48 sec)
Heartbeat CPU 0 instructions: 30000003 cycles: 13258083 heartbeat IPC: 1.219 cumulative IPC: 0.7202 (Simulation time: 00 hr 03 min 05 sec)
Heartbeat CPU 0 instructions: 40000001 cycles: 33967093 heartbeat IPC: 0.4829 cumulative IPC: 0.5425 (Simulation time: 00 hr 06 min 30 sec)
Heartbeat CPU 0 instructions: 50000003 cycles: 69881345 heartbeat IPC: 0.2784 cumulative IPC: 0.3933 (Simulation time: 00 hr 12 min 10 sec)
Simulation finished CPU 0 instructions: 25000003 cycles: 63565744 cumulative IPC: 0.3933 (Simulation time: 00 hr 12 min 10 sec)
Simulation complete CPU 0 instructions: 25000003 cycles: 63565744 cumulative IPC: 0.3933 (Simulation time: 00 hr 12 min 10 sec)

ChampSim completed all CPUs

=== Simulation ===
CPU 0 runs ./traces/leslie3d_1116B.trace.xz
Region of Interest Statistics

CPU 0 cumulative IPC: 0.3933 instructions: 25000003 cycles: 63565744
CPU 0 Branch Prediction Accuracy: 98.2% MPKI: 1.067 Average ROB Occupancy at Mispredict: 297.2
Branch type MPKI
BRANCH_DIRECT_JUMP: 0.00032
BRANCH_INDIRECT: 0
BRANCH_CONDITIONAL: 1.06
BRANCH_DIRECT_CALL: 0.00228
BRANCH_INDIRECT_CALL: 0
BRANCH_RETURN: 0.0022

LLC TOTAL        ACCESS:    1138032 HIT:      43204 MISS:    1094828
LLC LOAD         ACCESS:     127160 HIT:       8181 MISS:     118979
LLC RFO          ACCESS:     253609 HIT:       8872 MISS:     244737
LLC PREFETCH     ACCESS:     502145 HIT:      11221 MISS:     490924
LLC WRITE        ACCESS:     253356 HIT:      13717 MISS:     239639
LLC TRANSLATION  ACCESS:       1762 HIT:       1213 MISS:        549
LLC PREFETCH REQUESTED:          0 ISSUED:          0 USEFUL:          0 USELESS:          0
LLC AVERAGE MISS LATENCY: 790.5 cycles
cpu0_DTLB TOTAL        ACCESS:    5862676 HIT:    5785690 MISS:      76986
cpu0_DTLB LOAD         ACCESS:    5862676 HIT:    5785690 MISS:      76986
cpu0_DTLB RFO          ACCESS:          0 HIT:          0 MISS:          0
cpu0_DTLB PREFETCH     ACCESS:          0 HIT:          0 MISS:          0
cpu0_DTLB WRITE        ACCESS:          0 HIT:          0 MISS:          0
cpu0_DTLB TRANSLATION  ACCESS:          0 HIT:          0 MISS:          0
cpu0_DTLB PREFETCH REQUESTED:          0 ISSUED:          0 USEFUL:          0 USELESS:          0
cpu0_DTLB AVERAGE MISS LATENCY: 21 cycles
cpu0_ITLB TOTAL        ACCESS:      73497 HIT:      73473 MISS:         24
cpu0_ITLB LOAD         ACCESS:      73497 HIT:      73473 MISS:         24
cpu0_ITLB RFO          ACCESS:          0 HIT:          0 MISS:          0
cpu0_ITLB PREFETCH     ACCESS:          0 HIT:          0 MISS:          0
cpu0_ITLB WRITE        ACCESS:          0 HIT:          0 MISS:          0
cpu0_ITLB TRANSLATION  ACCESS:          0 HIT:          0 MISS:          0
cpu0_ITLB PREFETCH REQUESTED:          0 ISSUED:          0 USEFUL:          0 USELESS:          0
cpu0_ITLB AVERAGE MISS LATENCY: 271.7 cycles
cpu0_L1D TOTAL        ACCESS:   11294677 HIT:    6929318 MISS:    4365359
cpu0_L1D LOAD         ACCESS:    5360849 HIT:    3938123 MISS:    1422726
cpu0_L1D RFO          ACCESS:          0 HIT:          0 MISS:          0
cpu0_L1D PREFETCH     ACCESS:    2734103 HIT:    1877653 MISS:     856450
cpu0_L1D WRITE        ACCESS:    3190273 HIT:    1106510 MISS:    2083763
cpu0_L1D TRANSLATION  ACCESS:       9452 HIT:       7032 MISS:       2420
cpu0_L1D PREFETCH REQUESTED:   11521148 ISSUED:    2734106 USEFUL:     247105 USELESS:      14171
cpu0_L1D AVERAGE MISS LATENCY: 144.2 cycles
cpu0_L1I TOTAL        ACCESS:      97607 HIT:      97405 MISS:        202
cpu0_L1I LOAD         ACCESS:      97607 HIT:      97405 MISS:        202
cpu0_L1I RFO          ACCESS:          0 HIT:          0 MISS:          0
cpu0_L1I PREFETCH     ACCESS:          0 HIT:          0 MISS:          0
cpu0_L1I WRITE        ACCESS:          0 HIT:          0 MISS:          0
cpu0_L1I TRANSLATION  ACCESS:          0 HIT:          0 MISS:          0
cpu0_L1I PREFETCH REQUESTED:          0 ISSUED:          0 USEFUL:          0 USELESS:          0
cpu0_L1I AVERAGE MISS LATENCY: 543.1 cycles
cpu0_L2C TOTAL        ACCESS:    1923736 HIT:     766688 MISS:    1157048
cpu0_L2C LOAD         ACCESS:     300633 HIT:     122913 MISS:     177720
cpu0_L2C RFO          ACCESS:     314388 HIT:      60778 MISS:     253610
cpu0_L2C PREFETCH     ACCESS:     951820 HIT:     227949 MISS:     723871
cpu0_L2C WRITE        ACCESS:     354480 HIT:     354395 MISS:         85
cpu0_L2C TRANSLATION  ACCESS:       2415 HIT:        653 MISS:       1762
cpu0_L2C PREFETCH REQUESTED:     690586 ISSUED:     690549 USEFUL:      83003 USELESS:      73911
cpu0_L2C AVERAGE MISS LATENCY: 700.3 cycles
cpu0_STLB TOTAL        ACCESS:      15267 HIT:       5826 MISS:       9441
cpu0_STLB LOAD         ACCESS:      15267 HIT:       5826 MISS:       9441
cpu0_STLB RFO          ACCESS:          0 HIT:          0 MISS:          0
cpu0_STLB PREFETCH     ACCESS:          0 HIT:          0 MISS:          0
cpu0_STLB WRITE        ACCESS:          0 HIT:          0 MISS:          0
cpu0_STLB TRANSLATION  ACCESS:          0 HIT:          0 MISS:          0
cpu0_STLB PREFETCH REQUESTED:          0 ISSUED:          0 USEFUL:          0 USELESS:          0
cpu0_STLB AVERAGE MISS LATENCY: 250.7 cycles

DRAM Statistics

Channel 0 RQ ROW_BUFFER_HIT:     248128
  ROW_BUFFER_MISS:     402514
 AVG DBUS CONGESTED CYCLE: 3.936
WQ ROW_BUFFER_HIT: Channel 0 
  ROW_BUFFER_MISS:      42871
  FULL:     199575
