WARNING: physical memory size is smaller than virtual memory size.

*** ChampSim Multicore Out-of-Order Simulator ***
Warmup Instructions: 25000000
Simulation Instructions: 25000000
Number of CPUs: 1
Page size: 4096

Off-chip DRAM Size: 4 GiB Channels: 1 Width: 64-bit Data Race: 800 MT/s
Heartbeat CPU 0 instructions: 10000002 cycles: 2522397 heartbeat IPC: 3.964 cumulative IPC: 3.964 (Simulation time: 00 hr 00 min 52 sec)
Heartbeat CPU 0 instructions: 20000002 cycles: 5044641 heartbeat IPC: 3.965 cumulative IPC: 3.965 (Simulation time: 00 hr 01 min 43 sec)
Warmup finished CPU 0 instructions: 25000000 cycles: 6310406 cumulative IPC: 3.962 (Simulation time: 00 hr 02 min 09 sec)
Warmup complete CPU 0 instructions: 25000000 cycles: 6310406 cumulative IPC: 3.962 (Simulation time: 00 hr 02 min 09 sec)
Heartbeat CPU 0 instructions: 30000003 cycles: 77355130 heartbeat IPC: 0.1383 cumulative IPC: 0.07038 (Simulation time: 00 hr 09 min 00 sec)
Heartbeat CPU 0 instructions: 40000000 cycles: 234084761 heartbeat IPC: 0.0638 cumulative IPC: 0.06585 (Simulation time: 00 hr 21 min 04 sec)
Heartbeat CPU 0 instructions: 50000000 cycles: 376344609 heartbeat IPC: 0.07029 cumulative IPC: 0.06756 (Simulation time: 00 hr 25 min 54 sec)
Simulation finished CPU 0 instructions: 25000000 cycles: 370034204 cumulative IPC: 0.06756 (Simulation time: 00 hr 25 min 54 sec)
Simulation complete CPU 0 instructions: 25000000 cycles: 370034204 cumulative IPC: 0.06756 (Simulation time: 00 hr 25 min 54 sec)

ChampSim completed all CPUs

=== Simulation ===
CPU 0 runs ./traces/mcf_158B.trace.xz
Region of Interest Statistics

CPU 0 cumulative IPC: 0.06756 instructions: 25000000 cycles: 370034204
CPU 0 Branch Prediction Accuracy: 82.21% MPKI: 49.39 Average ROB Occupancy at Mispredict: 14.96
Branch type MPKI
BRANCH_DIRECT_JUMP: 1.13
BRANCH_INDIRECT: 0
BRANCH_CONDITIONAL: 48.3
BRANCH_DIRECT_CALL: 0
BRANCH_INDIRECT_CALL: 0
BRANCH_RETURN: 0

LLC TOTAL        ACCESS:    5508000 HIT:    1780816 MISS:    3727184
LLC LOAD         ACCESS:    2338403 HIT:     914169 MISS:    1424234
LLC RFO          ACCESS:      44702 HIT:      16485 MISS:      28217
LLC PREFETCH     ACCESS:    2367417 HIT:     608502 MISS:    1758915
LLC WRITE        ACCESS:     455224 HIT:     208453 MISS:     246771
LLC TRANSLATION  ACCESS:     302254 HIT:      33207 MISS:     269047
LLC PREFETCH REQUESTED:          0 ISSUED:          0 USEFUL:          0 USELESS:          0
LLC AVERAGE MISS LATENCY: 525.6 cycles
cpu0_DTLB TOTAL        ACCESS:    7755743 HIT:    4106283 MISS:    3649460
cpu0_DTLB LOAD         ACCESS:    7755743 HIT:    4106283 MISS:    3649460
cpu0_DTLB RFO          ACCESS:          0 HIT:          0 MISS:          0
cpu0_DTLB PREFETCH     ACCESS:          0 HIT:          0 MISS:          0
cpu0_DTLB WRITE        ACCESS:          0 HIT:          0 MISS:          0
cpu0_DTLB TRANSLATION  ACCESS:          0 HIT:          0 MISS:          0
cpu0_DTLB PREFETCH REQUESTED:          0 ISSUED:          0 USEFUL:          0 USELESS:          0
cpu0_DTLB AVERAGE MISS LATENCY: 44.04 cycles
cpu0_ITLB TOTAL        ACCESS:          0 HIT:          0 MISS:          0
cpu0_ITLB LOAD         ACCESS:          0 HIT:          0 MISS:          0
cpu0_ITLB RFO          ACCESS:          0 HIT:          0 MISS:          0
cpu0_ITLB PREFETCH     ACCESS:          0 HIT:          0 MISS:          0
cpu0_ITLB WRITE        ACCESS:          0 HIT:          0 MISS:          0
cpu0_ITLB TRANSLATION  ACCESS:          0 HIT:          0 MISS:          0
cpu0_ITLB PREFETCH REQUESTED:          0 ISSUED:          0 USEFUL:          0 USELESS:          0
cpu0_ITLB AVERAGE MISS LATENCY: -nan cycles
cpu0_L1D TOTAL        ACCESS:   15988749 HIT:    6023483 MISS:    9965266
cpu0_L1D LOAD         ACCESS:    7529674 HIT:    2817411 MISS:    4712263
cpu0_L1D RFO          ACCESS:          0 HIT:          0 MISS:          0
cpu0_L1D PREFETCH     ACCESS:    6894779 HIT:    2101544 MISS:    4793235
cpu0_L1D WRITE        ACCESS:    1159299 HIT:    1075581 MISS:      83718
cpu0_L1D TRANSLATION  ACCESS:     404997 HIT:      28947 MISS:     376050
cpu0_L1D PREFETCH REQUESTED:   10417676 ISSUED:    6894771 USEFUL:     207792 USELESS:    2590676
cpu0_L1D AVERAGE MISS LATENCY: 211.1 cycles
cpu0_L1I TOTAL        ACCESS:          0 HIT:          0 MISS:          0
cpu0_L1I LOAD         ACCESS:          0 HIT:          0 MISS:          0
cpu0_L1I RFO          ACCESS:          0 HIT:          0 MISS:          0
cpu0_L1I PREFETCH     ACCESS:          0 HIT:          0 MISS:          0
cpu0_L1I WRITE        ACCESS:          0 HIT:          0 MISS:          0
cpu0_L1I TRANSLATION  ACCESS:          0 HIT:          0 MISS:          0
cpu0_L1I PREFETCH REQUESTED:          0 ISSUED:          0 USEFUL:          0 USELESS:          0
cpu0_L1I AVERAGE MISS LATENCY: -nan cycles
cpu0_L2C TOTAL        ACCESS:    7057157 HIT:    2004086 MISS:    5053071
cpu0_L2C LOAD         ACCESS:    3229299 HIT:     890831 MISS:    2338468
cpu0_L2C RFO          ACCESS:      64026 HIT:      19324 MISS:      44702
cpu0_L2C PREFETCH     ACCESS:    2805980 HIT:     438383 MISS:    2367597
cpu0_L2C WRITE        ACCESS:     582179 HIT:     582129 MISS:         50
cpu0_L2C TRANSLATION  ACCESS:     375673 HIT:      73419 MISS:     302254
cpu0_L2C PREFETCH REQUESTED:       7303 ISSUED:       7303 USEFUL:       1241 USELESS:       2598
cpu0_L2C AVERAGE MISS LATENCY: 408.4 cycles
cpu0_STLB TOTAL        ACCESS:    2614671 HIT:    2321525 MISS:     293146
cpu0_STLB LOAD         ACCESS:    2614671 HIT:    2321525 MISS:     293146
cpu0_STLB RFO          ACCESS:          0 HIT:          0 MISS:          0
cpu0_STLB PREFETCH     ACCESS:          0 HIT:          0 MISS:          0
cpu0_STLB WRITE        ACCESS:          0 HIT:          0 MISS:          0
cpu0_STLB TRANSLATION  ACCESS:          0 HIT:          0 MISS:          0
cpu0_STLB PREFETCH REQUESTED:          0 ISSUED:          0 USEFUL:          0 USELESS:          0
cpu0_STLB AVERAGE MISS LATENCY: 485.2 cycles

DRAM Statistics

Channel 0 RQ ROW_BUFFER_HIT:     121334
  ROW_BUFFER_MISS:    3356529
 AVG DBUS CONGESTED CYCLE: 3.954
WQ ROW_BUFFER_HIT: Channel 0 
  ROW_BUFFER_MISS:       6211
  FULL:     283524
