WARNING: physical memory size is smaller than virtual memory size.

*** ChampSim Multicore Out-of-Order Simulator ***
Warmup Instructions: 25000000
Simulation Instructions: 25000000
Number of CPUs: 1
Page size: 4096

Off-chip DRAM Size: 4 GiB Channels: 1 Width: 64-bit Data Race: 800 MT/s
Heartbeat CPU 0 instructions: 10000000 cycles: 2780080 heartbeat IPC: 3.597 cumulative IPC: 3.597 (Simulation time: 00 hr 00 min 43 sec)
Heartbeat CPU 0 instructions: 20000000 cycles: 5280080 heartbeat IPC: 4 cumulative IPC: 3.788 (Simulation time: 00 hr 01 min 24 sec)
Warmup finished CPU 0 instructions: 25000000 cycles: 6530081 cumulative IPC: 3.828 (Simulation time: 00 hr 01 min 45 sec)
Warmup complete CPU 0 instructions: 25000000 cycles: 6530081 cumulative IPC: 3.828 (Simulation time: 00 hr 01 min 45 sec)
Heartbeat CPU 0 instructions: 30000000 cycles: 15838345 heartbeat IPC: 0.9471 cumulative IPC: 0.5372 (Simulation time: 00 hr 03 min 17 sec)
Heartbeat CPU 0 instructions: 40000003 cycles: 34394729 heartbeat IPC: 0.5389 cumulative IPC: 0.5383 (Simulation time: 00 hr 06 min 22 sec)
Heartbeat CPU 0 instructions: 50000001 cycles: 52956280 heartbeat IPC: 0.5387 cumulative IPC: 0.5385 (Simulation time: 00 hr 09 min 23 sec)
Simulation finished CPU 0 instructions: 25000001 cycles: 46426200 cumulative IPC: 0.5385 (Simulation time: 00 hr 09 min 23 sec)
Simulation complete CPU 0 instructions: 25000001 cycles: 46426200 cumulative IPC: 0.5385 (Simulation time: 00 hr 09 min 23 sec)

ChampSim completed all CPUs

=== Simulation ===
CPU 0 runs ./traces/milc_409B.trace.xz
Region of Interest Statistics

CPU 0 cumulative IPC: 0.5385 instructions: 25000001 cycles: 46426200
CPU 0 Branch Prediction Accuracy: 100% MPKI: 0.00016 Average ROB Occupancy at Mispredict: 219.8
Branch type MPKI
BRANCH_DIRECT_JUMP: 4e-05
BRANCH_INDIRECT: 0
BRANCH_CONDITIONAL: 0.00012
BRANCH_DIRECT_CALL: 0
BRANCH_INDIRECT_CALL: 0
BRANCH_RETURN: 0

LLC TOTAL        ACCESS:     723457 HIT:          0 MISS:     723457
LLC LOAD         ACCESS:     160876 HIT:          0 MISS:     160876
LLC RFO          ACCESS:          0 HIT:          0 MISS:          0
LLC PREFETCH     ACCESS:     392207 HIT:          0 MISS:     392207
LLC WRITE        ACCESS:     170197 HIT:          0 MISS:     170197
LLC TRANSLATION  ACCESS:        177 HIT:          0 MISS:        177
LLC PREFETCH REQUESTED:          0 ISSUED:          0 USEFUL:          0 USELESS:          0
LLC AVERAGE MISS LATENCY: 552.2 cycles
cpu0_DTLB TOTAL        ACCESS:    5711060 HIT:    5481900 MISS:     229160
cpu0_DTLB LOAD         ACCESS:    5711060 HIT:    5481900 MISS:     229160
cpu0_DTLB RFO          ACCESS:          0 HIT:          0 MISS:          0
cpu0_DTLB PREFETCH     ACCESS:          0 HIT:          0 MISS:          0
cpu0_DTLB WRITE        ACCESS:          0 HIT:          0 MISS:          0
cpu0_DTLB TRANSLATION  ACCESS:          0 HIT:          0 MISS:          0
cpu0_DTLB PREFETCH REQUESTED:          0 ISSUED:          0 USEFUL:          0 USELESS:          0
cpu0_DTLB AVERAGE MISS LATENCY: 22.08 cycles
cpu0_ITLB TOTAL        ACCESS:          1 HIT:          1 MISS:          0
cpu0_ITLB LOAD         ACCESS:          1 HIT:          1 MISS:          0
cpu0_ITLB RFO          ACCESS:          0 HIT:          0 MISS:          0
cpu0_ITLB PREFETCH     ACCESS:          0 HIT:          0 MISS:          0
cpu0_ITLB WRITE        ACCESS:          0 HIT:          0 MISS:          0
cpu0_ITLB TRANSLATION  ACCESS:          0 HIT:          0 MISS:          0
cpu0_ITLB PREFETCH REQUESTED:          0 ISSUED:          0 USEFUL:          0 USELESS:          0
cpu0_ITLB AVERAGE MISS LATENCY: -nan cycles
cpu0_L1D TOTAL        ACCESS:    8996805 HIT:    7493573 MISS:    1503232
cpu0_L1D LOAD         ACCESS:    1583100 HIT:     984490 MISS:     598610
cpu0_L1D RFO          ACCESS:          0 HIT:          0 MISS:          0
cpu0_L1D PREFETCH     ACCESS:    1582114 HIT:     742234 MISS:     839880
cpu0_L1D WRITE        ACCESS:    5786959 HIT:    5724381 MISS:      62578
cpu0_L1D TRANSLATION  ACCESS:      44632 HIT:      42468 MISS:       2164
cpu0_L1D PREFETCH REQUESTED:    1583100 ISSUED:    1582114 USEFUL:     165519 USELESS:     172119
cpu0_L1D AVERAGE MISS LATENCY: 216.4 cycles
cpu0_L1I TOTAL        ACCESS:          1 HIT:          0 MISS:          1
cpu0_L1I LOAD         ACCESS:          1 HIT:          0 MISS:          1
cpu0_L1I RFO          ACCESS:          0 HIT:          0 MISS:          0
cpu0_L1I PREFETCH     ACCESS:          0 HIT:          0 MISS:          0
cpu0_L1I WRITE        ACCESS:          0 HIT:          0 MISS:          0
cpu0_L1I TRANSLATION  ACCESS:          0 HIT:          0 MISS:          0
cpu0_L1I PREFETCH REQUESTED:          0 ISSUED:          0 USEFUL:          0 USELESS:          0
cpu0_L1I AVERAGE MISS LATENCY: 240 cycles
cpu0_L2C TOTAL        ACCESS:     830960 HIT:     198554 MISS:     632406
cpu0_L2C LOAD         ACCESS:     217440 HIT:        393 MISS:     217047
cpu0_L2C RFO          ACCESS:      11909 HIT:      11909 MISS:          0
cpu0_L2C PREFETCH     ACCESS:     417178 HIT:       1996 MISS:     415182
cpu0_L2C WRITE        ACCESS:     182269 HIT:     182269 MISS:          0
cpu0_L2C TRANSLATION  ACCESS:       2164 HIT:       1987 MISS:        177
cpu0_L2C PREFETCH REQUESTED:      79536 ISSUED:      79536 USEFUL:      58911 USELESS:          0
cpu0_L2C AVERAGE MISS LATENCY: 614.7 cycles
cpu0_STLB TOTAL        ACCESS:      44546 HIT:          0 MISS:      44546
cpu0_STLB LOAD         ACCESS:      44546 HIT:          0 MISS:      44546
cpu0_STLB RFO          ACCESS:          0 HIT:          0 MISS:          0
cpu0_STLB PREFETCH     ACCESS:          0 HIT:          0 MISS:          0
cpu0_STLB WRITE        ACCESS:          0 HIT:          0 MISS:          0
cpu0_STLB TRANSLATION  ACCESS:          0 HIT:          0 MISS:          0
cpu0_STLB PREFETCH REQUESTED:          0 ISSUED:          0 USEFUL:          0 USELESS:          0
cpu0_STLB AVERAGE MISS LATENCY: 209.7 cycles

DRAM Statistics

Channel 0 RQ ROW_BUFFER_HIT:     375168
  ROW_BUFFER_MISS:     178088
 AVG DBUS CONGESTED CYCLE: 3.851
WQ ROW_BUFFER_HIT: Channel 0 
  ROW_BUFFER_MISS:      86822
  FULL:      83334
