WARNING: physical memory size is smaller than virtual memory size.

*** ChampSim Multicore Out-of-Order Simulator ***
Warmup Instructions: 25000000
Simulation Instructions: 25000000
Number of CPUs: 1
Page size: 4096

Off-chip DRAM Size: 4 GiB Channels: 1 Width: 64-bit Data Race: 800 MT/s
Heartbeat CPU 0 instructions: 10000003 cycles: 2517018 heartbeat IPC: 3.973 cumulative IPC: 3.973 (Simulation time: 00 hr 00 min 36 sec)
Heartbeat CPU 0 instructions: 20000001 cycles: 5026643 heartbeat IPC: 3.985 cumulative IPC: 3.979 (Simulation time: 00 hr 01 min 11 sec)
Warmup finished CPU 0 instructions: 25000003 cycles: 6285090 cumulative IPC: 3.978 (Simulation time: 00 hr 01 min 30 sec)
Warmup complete CPU 0 instructions: 25000003 cycles: 6285090 cumulative IPC: 3.978 (Simulation time: 00 hr 01 min 30 sec)
Heartbeat CPU 0 instructions: 30000000 cycles: 14359872 heartbeat IPC: 1.071 cumulative IPC: 0.6192 (Simulation time: 00 hr 02 min 45 sec)
Heartbeat CPU 0 instructions: 40000001 cycles: 29947583 heartbeat IPC: 0.6415 cumulative IPC: 0.6339 (Simulation time: 00 hr 05 min 17 sec)
Heartbeat CPU 0 instructions: 50000002 cycles: 44116575 heartbeat IPC: 0.7058 cumulative IPC: 0.6608 (Simulation time: 00 hr 07 min 37 sec)
Simulation finished CPU 0 instructions: 25000003 cycles: 37831487 cumulative IPC: 0.6608 (Simulation time: 00 hr 07 min 37 sec)
Simulation complete CPU 0 instructions: 25000003 cycles: 37831487 cumulative IPC: 0.6608 (Simulation time: 00 hr 07 min 37 sec)

ChampSim completed all CPUs

=== Simulation ===
CPU 0 runs ./traces/omnetpp_4B.trace.xz
Region of Interest Statistics

CPU 0 cumulative IPC: 0.6608 instructions: 25000003 cycles: 37831487
CPU 0 Branch Prediction Accuracy: 96.67% MPKI: 10.7 Average ROB Occupancy at Mispredict: 31.56
Branch type MPKI
BRANCH_DIRECT_JUMP: 0.0128
BRANCH_INDIRECT: 0.125
BRANCH_CONDITIONAL: 10.5
BRANCH_DIRECT_CALL: 0.00156
BRANCH_INDIRECT_CALL: 0.00548
BRANCH_RETURN: 0.0298

LLC TOTAL        ACCESS:    1076486 HIT:     599994 MISS:     476492
LLC LOAD         ACCESS:     565364 HIT:     336294 MISS:     229070
LLC RFO          ACCESS:       6335 HIT:        672 MISS:       5663
LLC PREFETCH     ACCESS:     421300 HIT:     250970 MISS:     170330
LLC WRITE        ACCESS:      20962 HIT:       5472 MISS:      15490
LLC TRANSLATION  ACCESS:      62525 HIT:       6586 MISS:      55939
LLC PREFETCH REQUESTED:          0 ISSUED:          0 USEFUL:          0 USELESS:          0
LLC AVERAGE MISS LATENCY: 795 cycles
cpu0_DTLB TOTAL        ACCESS:    3191500 HIT:    2709312 MISS:     482188
cpu0_DTLB LOAD         ACCESS:    3191500 HIT:    2709312 MISS:     482188
cpu0_DTLB RFO          ACCESS:          0 HIT:          0 MISS:          0
cpu0_DTLB PREFETCH     ACCESS:          0 HIT:          0 MISS:          0
cpu0_DTLB WRITE        ACCESS:          0 HIT:          0 MISS:          0
cpu0_DTLB TRANSLATION  ACCESS:          0 HIT:          0 MISS:          0
cpu0_DTLB PREFETCH REQUESTED:          0 ISSUED:          0 USEFUL:          0 USELESS:          0
cpu0_DTLB AVERAGE MISS LATENCY: 202.8 cycles
cpu0_ITLB TOTAL        ACCESS:     265280 HIT:     247846 MISS:      17434
cpu0_ITLB LOAD         ACCESS:     265280 HIT:     247846 MISS:      17434
cpu0_ITLB RFO          ACCESS:          0 HIT:          0 MISS:          0
cpu0_ITLB PREFETCH     ACCESS:          0 HIT:          0 MISS:          0
cpu0_ITLB WRITE        ACCESS:          0 HIT:          0 MISS:          0
cpu0_ITLB TRANSLATION  ACCESS:          0 HIT:          0 MISS:          0
cpu0_ITLB PREFETCH REQUESTED:          0 ISSUED:          0 USEFUL:          0 USELESS:          0
cpu0_ITLB AVERAGE MISS LATENCY: 15.92 cycles
cpu0_L1D TOTAL        ACCESS:    6584894 HIT:    4757850 MISS:    1827044
cpu0_L1D LOAD         ACCESS:    2471270 HIT:    1685521 MISS:     785749
cpu0_L1D RFO          ACCESS:          0 HIT:          0 MISS:          0
cpu0_L1D PREFETCH     ACCESS:    2546795 HIT:    1627596 MISS:     919199
cpu0_L1D WRITE        ACCESS:    1204417 HIT:    1157967 MISS:      46450
cpu0_L1D TRANSLATION  ACCESS:     362412 HIT:     286766 MISS:      75646
cpu0_L1D PREFETCH REQUESTED:   15594378 ISSUED:    2546795 USEFUL:      55904 USELESS:     306061
cpu0_L1D AVERAGE MISS LATENCY: 204.1 cycles
cpu0_L1I TOTAL        ACCESS:     291475 HIT:     267485 MISS:      23990
cpu0_L1I LOAD         ACCESS:     291475 HIT:     267485 MISS:      23990
cpu0_L1I RFO          ACCESS:          0 HIT:          0 MISS:          0
cpu0_L1I PREFETCH     ACCESS:          0 HIT:          0 MISS:          0
cpu0_L1I WRITE        ACCESS:          0 HIT:          0 MISS:          0
cpu0_L1I TRANSLATION  ACCESS:          0 HIT:          0 MISS:          0
cpu0_L1I PREFETCH REQUESTED:          0 ISSUED:          0 USEFUL:          0 USELESS:          0
cpu0_L1I AVERAGE MISS LATENCY: 110.4 cycles
cpu0_L2C TOTAL        ACCESS:    1134517 HIT:      61666 MISS:    1072851
cpu0_L2C LOAD         ACCESS:     587022 HIT:      15990 MISS:     571032
cpu0_L2C RFO          ACCESS:       8110 HIT:       1765 MISS:       6345
cpu0_L2C PREFETCH     ACCESS:     446017 HIT:      13068 MISS:     432949
cpu0_L2C WRITE        ACCESS:      23202 HIT:      23202 MISS:          0
cpu0_L2C TRANSLATION  ACCESS:      70166 HIT:       7641 MISS:      62525
cpu0_L2C PREFETCH REQUESTED:      84045 ISSUED:      84045 USEFUL:      13376 USELESS:       1591
cpu0_L2C AVERAGE MISS LATENCY: 358.4 cycles
cpu0_STLB TOTAL        ACCESS:     365491 HIT:       5906 MISS:     359585
cpu0_STLB LOAD         ACCESS:     365491 HIT:       5906 MISS:     359585
cpu0_STLB RFO          ACCESS:          0 HIT:          0 MISS:          0
cpu0_STLB PREFETCH     ACCESS:          0 HIT:          0 MISS:          0
cpu0_STLB WRITE        ACCESS:          0 HIT:          0 MISS:          0
cpu0_STLB TRANSLATION  ACCESS:          0 HIT:          0 MISS:          0
cpu0_STLB PREFETCH REQUESTED:          0 ISSUED:          0 USEFUL:          0 USELESS:          0
cpu0_STLB AVERAGE MISS LATENCY: 275 cycles

DRAM Statistics

Channel 0 RQ ROW_BUFFER_HIT:     148415
  ROW_BUFFER_MISS:     278918
 AVG DBUS CONGESTED CYCLE: 3.871
WQ ROW_BUFFER_HIT: Channel 0 
  ROW_BUFFER_MISS:       4544
  FULL:      15562
