WARNING: physical memory size is smaller than virtual memory size.

*** ChampSim Multicore Out-of-Order Simulator ***
Warmup Instructions: 25000000
Simulation Instructions: 25000000
Number of CPUs: 1
Page size: 4096

Off-chip DRAM Size: 4 GiB Channels: 1 Width: 64-bit Data Race: 800 MT/s
Heartbeat CPU 0 instructions: 10000000 cycles: 2516028 heartbeat IPC: 3.975 cumulative IPC: 3.975 (Simulation time: 00 hr 00 min 45 sec)
Heartbeat CPU 0 instructions: 20000001 cycles: 5033428 heartbeat IPC: 3.972 cumulative IPC: 3.973 (Simulation time: 00 hr 01 min 31 sec)
Warmup finished CPU 0 instructions: 25000000 cycles: 6291790 cumulative IPC: 3.973 (Simulation time: 00 hr 01 min 54 sec)
Warmup complete CPU 0 instructions: 25000000 cycles: 6291790 cumulative IPC: 3.973 (Simulation time: 00 hr 01 min 54 sec)
Heartbeat CPU 0 instructions: 30000002 cycles: 26894136 heartbeat IPC: 0.4574 cumulative IPC: 0.2427 (Simulation time: 00 hr 04 min 16 sec)
Heartbeat CPU 0 instructions: 40000002 cycles: 66073214 heartbeat IPC: 0.2552 cumulative IPC: 0.2509 (Simulation time: 00 hr 09 min 02 sec)
Heartbeat CPU 0 instructions: 50000001 cycles: 102407031 heartbeat IPC: 0.2752 cumulative IPC: 0.2601 (Simulation time: 00 hr 12 min 34 sec)
Simulation finished CPU 0 instructions: 25000001 cycles: 96115242 cumulative IPC: 0.2601 (Simulation time: 00 hr 12 min 34 sec)
Simulation complete CPU 0 instructions: 25000001 cycles: 96115242 cumulative IPC: 0.2601 (Simulation time: 00 hr 12 min 34 sec)

ChampSim completed all CPUs

=== Simulation ===
CPU 0 runs ./traces/omnetpp_340B.trace.xz
Region of Interest Statistics

CPU 0 cumulative IPC: 0.2601 instructions: 25000001 cycles: 96115242
CPU 0 Branch Prediction Accuracy: 92.7% MPKI: 17.4 Average ROB Occupancy at Mispredict: 50.99
Branch type MPKI
BRANCH_DIRECT_JUMP: 0.00016
BRANCH_INDIRECT: 0.0548
BRANCH_CONDITIONAL: 17.3
BRANCH_DIRECT_CALL: 4e-05
BRANCH_INDIRECT_CALL: 0.063
BRANCH_RETURN: 0.0296

LLC TOTAL        ACCESS:    1125682 HIT:     105608 MISS:    1020074
LLC LOAD         ACCESS:     376469 HIT:      31449 MISS:     345020
LLC RFO          ACCESS:      55865 HIT:       4473 MISS:      51392
LLC PREFETCH     ACCESS:     375758 HIT:      22008 MISS:     353750
LLC WRITE        ACCESS:     237274 HIT:      43935 MISS:     193339
LLC TRANSLATION  ACCESS:      80316 HIT:       3743 MISS:      76573
LLC PREFETCH REQUESTED:          0 ISSUED:          0 USEFUL:          0 USELESS:          0
LLC AVERAGE MISS LATENCY: 364.7 cycles
cpu0_DTLB TOTAL        ACCESS:    7713880 HIT:    7067429 MISS:     646451
cpu0_DTLB LOAD         ACCESS:    7713880 HIT:    7067429 MISS:     646451
cpu0_DTLB RFO          ACCESS:          0 HIT:          0 MISS:          0
cpu0_DTLB PREFETCH     ACCESS:          0 HIT:          0 MISS:          0
cpu0_DTLB WRITE        ACCESS:          0 HIT:          0 MISS:          0
cpu0_DTLB TRANSLATION  ACCESS:          0 HIT:          0 MISS:          0
cpu0_DTLB PREFETCH REQUESTED:          0 ISSUED:          0 USEFUL:          0 USELESS:          0
cpu0_DTLB AVERAGE MISS LATENCY: 66.25 cycles
cpu0_ITLB TOTAL        ACCESS:    1067565 HIT:    1065590 MISS:       1975
cpu0_ITLB LOAD         ACCESS:    1067565 HIT:    1065590 MISS:       1975
cpu0_ITLB RFO          ACCESS:          0 HIT:          0 MISS:          0
cpu0_ITLB PREFETCH     ACCESS:          0 HIT:          0 MISS:          0
cpu0_ITLB WRITE        ACCESS:          0 HIT:          0 MISS:          0
cpu0_ITLB TRANSLATION  ACCESS:          0 HIT:          0 MISS:          0
cpu0_ITLB PREFETCH REQUESTED:          0 ISSUED:          0 USEFUL:          0 USELESS:          0
cpu0_ITLB AVERAGE MISS LATENCY: 35.05 cycles
cpu0_L1D TOTAL        ACCESS:   14040792 HIT:   11832598 MISS:    2208194
cpu0_L1D LOAD         ACCESS:    5089402 HIT:    4234265 MISS:     855137
cpu0_L1D RFO          ACCESS:          0 HIT:          0 MISS:          0
cpu0_L1D PREFETCH     ACCESS:    4574449 HIT:    3646982 MISS:     927467
cpu0_L1D WRITE        ACCESS:    4258317 HIT:    3944907 MISS:     313410
cpu0_L1D TRANSLATION  ACCESS:     118624 HIT:       6444 MISS:     112180
cpu0_L1D PREFETCH REQUESTED:    5424438 ISSUED:    4574442 USEFUL:     131909 USELESS:     342442
cpu0_L1D AVERAGE MISS LATENCY: 169.6 cycles
cpu0_L1I TOTAL        ACCESS:    1148791 HIT:    1146074 MISS:       2717
cpu0_L1I LOAD         ACCESS:    1148791 HIT:    1146074 MISS:       2717
cpu0_L1I RFO          ACCESS:          0 HIT:          0 MISS:          0
cpu0_L1I PREFETCH     ACCESS:          0 HIT:          0 MISS:          0
cpu0_L1I WRITE        ACCESS:          0 HIT:          0 MISS:          0
cpu0_L1I TRANSLATION  ACCESS:          0 HIT:          0 MISS:          0
cpu0_L1I PREFETCH REQUESTED:          0 ISSUED:          0 USEFUL:          0 USELESS:          0
cpu0_L1I AVERAGE MISS LATENCY: 74.54 cycles
cpu0_L2C TOTAL        ACCESS:    1494432 HIT:     603018 MISS:     891414
cpu0_L2C LOAD         ACCESS:     515595 HIT:     138662 MISS:     376933
cpu0_L2C RFO          ACCESS:      70944 HIT:      15079 MISS:      55865
cpu0_L2C PREFETCH     ACCESS:     495456 HIT:     119013 MISS:     376443
cpu0_L2C WRITE        ACCESS:     300581 HIT:     298724 MISS:       1857
cpu0_L2C TRANSLATION  ACCESS:     111856 HIT:      31540 MISS:      80316
cpu0_L2C PREFETCH REQUESTED:      21063 ISSUED:      21063 USEFUL:       3899 USELESS:      13180
cpu0_L2C AVERAGE MISS LATENCY: 437.7 cycles
cpu0_STLB TOTAL        ACCESS:     455760 HIT:     342006 MISS:     113754
cpu0_STLB LOAD         ACCESS:     455760 HIT:     342006 MISS:     113754
cpu0_STLB RFO          ACCESS:          0 HIT:          0 MISS:          0
cpu0_STLB PREFETCH     ACCESS:          0 HIT:          0 MISS:          0
cpu0_STLB WRITE        ACCESS:          0 HIT:          0 MISS:          0
cpu0_STLB TRANSLATION  ACCESS:          0 HIT:          0 MISS:          0
cpu0_STLB PREFETCH REQUESTED:          0 ISSUED:          0 USEFUL:          0 USELESS:          0
cpu0_STLB AVERAGE MISS LATENCY: 359.2 cycles

DRAM Statistics

Channel 0 RQ ROW_BUFFER_HIT:     123616
  ROW_BUFFER_MISS:     702504
 AVG DBUS CONGESTED CYCLE: 3.94
WQ ROW_BUFFER_HIT: Channel 0 
  ROW_BUFFER_MISS:       1439
  FULL:     207274
