WARNING: physical memory size is smaller than virtual memory size.

*** ChampSim Multicore Out-of-Order Simulator ***
Warmup Instructions: 25000000
Simulation Instructions: 25000000
Number of CPUs: 1
Page size: 4096

Off-chip DRAM Size: 4 GiB Channels: 1 Width: 64-bit Data Race: 800 MT/s
Heartbeat CPU 0 instructions: 10000000 cycles: 2580327 heartbeat IPC: 3.875 cumulative IPC: 3.875 (Simulation time: 00 hr 00 min 42 sec)
Heartbeat CPU 0 instructions: 20000001 cycles: 5135267 heartbeat IPC: 3.914 cumulative IPC: 3.895 (Simulation time: 00 hr 01 min 26 sec)
Warmup finished CPU 0 instructions: 25000000 cycles: 6436120 cumulative IPC: 3.884 (Simulation time: 00 hr 01 min 47 sec)
Warmup complete CPU 0 instructions: 25000000 cycles: 6436120 cumulative IPC: 3.884 (Simulation time: 00 hr 01 min 47 sec)
Heartbeat CPU 0 instructions: 30000001 cycles: 29802162 heartbeat IPC: 0.4054 cumulative IPC: 0.214 (Simulation time: 00 hr 04 min 56 sec)
Heartbeat CPU 0 instructions: 40000002 cycles: 72461706 heartbeat IPC: 0.2344 cumulative IPC: 0.2272 (Simulation time: 00 hr 09 min 57 sec)
Heartbeat CPU 0 instructions: 50000002 cycles: 114851751 heartbeat IPC: 0.2359 cumulative IPC: 0.2306 (Simulation time: 00 hr 12 min 47 sec)
Simulation finished CPU 0 instructions: 25000002 cycles: 108415632 cumulative IPC: 0.2306 (Simulation time: 00 hr 12 min 47 sec)
Simulation complete CPU 0 instructions: 25000002 cycles: 108415632 cumulative IPC: 0.2306 (Simulation time: 00 hr 12 min 47 sec)

ChampSim completed all CPUs

=== Simulation ===
CPU 0 runs ./traces/soplex_217B.trace.xz
Region of Interest Statistics

CPU 0 cumulative IPC: 0.2306 instructions: 25000002 cycles: 108415632
CPU 0 Branch Prediction Accuracy: 95.1% MPKI: 11 Average ROB Occupancy at Mispredict: 66.21
Branch type MPKI
BRANCH_DIRECT_JUMP: 0.0653
BRANCH_INDIRECT: 0.00024
BRANCH_CONDITIONAL: 10.9
BRANCH_DIRECT_CALL: 4e-05
BRANCH_INDIRECT_CALL: 0.00044
BRANCH_RETURN: 0.00048

LLC TOTAL        ACCESS:    2207773 HIT:     567856 MISS:    1639917
LLC LOAD         ACCESS:     670148 HIT:     181416 MISS:     488732
LLC RFO          ACCESS:     144601 HIT:      44570 MISS:     100031
LLC PREFETCH     ACCESS:     856006 HIT:     174374 MISS:     681632
LLC WRITE        ACCESS:     523263 HIT:     166882 MISS:     356381
LLC TRANSLATION  ACCESS:      13755 HIT:        614 MISS:      13141
LLC PREFETCH REQUESTED:          0 ISSUED:          0 USEFUL:          0 USELESS:          0
LLC AVERAGE MISS LATENCY: 752.7 cycles
cpu0_DTLB TOTAL        ACCESS:    5394452 HIT:    5090906 MISS:     303546
cpu0_DTLB LOAD         ACCESS:    5394452 HIT:    5090906 MISS:     303546
cpu0_DTLB RFO          ACCESS:          0 HIT:          0 MISS:          0
cpu0_DTLB PREFETCH     ACCESS:          0 HIT:          0 MISS:          0
cpu0_DTLB WRITE        ACCESS:          0 HIT:          0 MISS:          0
cpu0_DTLB TRANSLATION  ACCESS:          0 HIT:          0 MISS:          0
cpu0_DTLB PREFETCH REQUESTED:          0 ISSUED:          0 USEFUL:          0 USELESS:          0
cpu0_DTLB AVERAGE MISS LATENCY: 48.11 cycles
cpu0_ITLB TOTAL        ACCESS:       1654 HIT:       1654 MISS:          0
cpu0_ITLB LOAD         ACCESS:       1654 HIT:       1654 MISS:          0
cpu0_ITLB RFO          ACCESS:          0 HIT:          0 MISS:          0
cpu0_ITLB PREFETCH     ACCESS:          0 HIT:          0 MISS:          0
cpu0_ITLB WRITE        ACCESS:          0 HIT:          0 MISS:          0
cpu0_ITLB TRANSLATION  ACCESS:          0 HIT:          0 MISS:          0
cpu0_ITLB PREFETCH REQUESTED:          0 ISSUED:          0 USEFUL:          0 USELESS:          0
cpu0_ITLB AVERAGE MISS LATENCY: -nan cycles
cpu0_L1D TOTAL        ACCESS:    9966551 HIT:    5419272 MISS:    4547279
cpu0_L1D LOAD         ACCESS:    4638673 HIT:    2530594 MISS:    2108079
cpu0_L1D RFO          ACCESS:          0 HIT:          0 MISS:          0
cpu0_L1D PREFETCH     ACCESS:    3808345 HIT:    1833742 MISS:    1974603
cpu0_L1D WRITE        ACCESS:    1493392 HIT:    1049636 MISS:     443756
cpu0_L1D TRANSLATION  ACCESS:      26141 HIT:       5300 MISS:      20841
cpu0_L1D PREFETCH REQUESTED:   28999504 ISSUED:    3808347 USEFUL:     341359 USELESS:     359821
cpu0_L1D AVERAGE MISS LATENCY: 241 cycles
cpu0_L1I TOTAL        ACCESS:       1972 HIT:       1915 MISS:         57
cpu0_L1I LOAD         ACCESS:       1972 HIT:       1915 MISS:         57
cpu0_L1I RFO          ACCESS:          0 HIT:          0 MISS:          0
cpu0_L1I PREFETCH     ACCESS:          0 HIT:          0 MISS:          0
cpu0_L1I WRITE        ACCESS:          0 HIT:          0 MISS:          0
cpu0_L1I TRANSLATION  ACCESS:          0 HIT:          0 MISS:          0
cpu0_L1I PREFETCH REQUESTED:          0 ISSUED:          0 USEFUL:          0 USELESS:          0
cpu0_L1I AVERAGE MISS LATENCY: 518.5 cycles
cpu0_L2C TOTAL        ACCESS:    3531360 HIT:    1454270 MISS:    2077090
cpu0_L2C LOAD         ACCESS:    1040793 HIT:     332551 MISS:     708242
cpu0_L2C RFO          ACCESS:     159250 HIT:      14649 MISS:     144601
cpu0_L2C PREFETCH     ACCESS:    1593956 HIT:     383499 MISS:    1210457
cpu0_L2C WRITE        ACCESS:     716688 HIT:     716653 MISS:         35
cpu0_L2C TRANSLATION  ACCESS:      20673 HIT:       6918 MISS:      13755
cpu0_L2C PREFETCH REQUESTED:     897788 ISSUED:     892779 USEFUL:     155123 USELESS:      98488
cpu0_L2C AVERAGE MISS LATENCY: 572.1 cycles
cpu0_STLB TOTAL        ACCESS:     156941 HIT:     130903 MISS:      26038
cpu0_STLB LOAD         ACCESS:     156941 HIT:     130903 MISS:      26038
cpu0_STLB RFO          ACCESS:          0 HIT:          0 MISS:          0
cpu0_STLB PREFETCH     ACCESS:          0 HIT:          0 MISS:          0
cpu0_STLB WRITE        ACCESS:          0 HIT:          0 MISS:          0
cpu0_STLB TRANSLATION  ACCESS:          0 HIT:          0 MISS:          0
cpu0_STLB PREFETCH REQUESTED:          0 ISSUED:          0 USEFUL:          0 USELESS:          0
cpu0_STLB AVERAGE MISS LATENCY: 680.7 cycles

DRAM Statistics

Channel 0 RQ ROW_BUFFER_HIT:     362333
  ROW_BUFFER_MISS:     795980
 AVG DBUS CONGESTED CYCLE: 3.91
WQ ROW_BUFFER_HIT: Channel 0 
  ROW_BUFFER_MISS:      37667
  FULL:     347832
