WARNING: physical memory size is smaller than virtual memory size.

*** ChampSim Multicore Out-of-Order Simulator ***
Warmup Instructions: 25000000
Simulation Instructions: 25000000
Number of CPUs: 1
Page size: 4096

Off-chip DRAM Size: 4 GiB Channels: 1 Width: 64-bit Data Race: 800 MT/s
Heartbeat CPU 0 instructions: 10000003 cycles: 2534962 heartbeat IPC: 3.945 cumulative IPC: 3.945 (Simulation time: 00 hr 00 min 35 sec)
Heartbeat CPU 0 instructions: 20000000 cycles: 5092139 heartbeat IPC: 3.911 cumulative IPC: 3.928 (Simulation time: 00 hr 01 min 11 sec)
Warmup finished CPU 0 instructions: 25000003 cycles: 6369185 cumulative IPC: 3.925 (Simulation time: 00 hr 01 min 30 sec)
Warmup complete CPU 0 instructions: 25000003 cycles: 6369185 cumulative IPC: 3.925 (Simulation time: 00 hr 01 min 30 sec)
Heartbeat CPU 0 instructions: 30000003 cycles: 9029476 heartbeat IPC: 2.54 cumulative IPC: 1.879 (Simulation time: 00 hr 02 min 05 sec)
Heartbeat CPU 0 instructions: 40000002 cycles: 16469531 heartbeat IPC: 1.344 cumulative IPC: 1.485 (Simulation time: 00 hr 03 min 37 sec)
Heartbeat CPU 0 instructions: 50000000 cycles: 23685531 heartbeat IPC: 1.386 cumulative IPC: 1.444 (Simulation time: 00 hr 05 min 03 sec)
Simulation finished CPU 0 instructions: 25000001 cycles: 17316348 cumulative IPC: 1.444 (Simulation time: 00 hr 05 min 03 sec)
Simulation complete CPU 0 instructions: 25000001 cycles: 17316348 cumulative IPC: 1.444 (Simulation time: 00 hr 05 min 03 sec)

ChampSim completed all CPUs

=== Simulation ===
CPU 0 runs ./traces/sphinx3_1339B.trace.xz
Region of Interest Statistics

CPU 0 cumulative IPC: 1.444 instructions: 25000001 cycles: 17316348
CPU 0 Branch Prediction Accuracy: 95.31% MPKI: 4.089 Average ROB Occupancy at Mispredict: 174.4
Branch type MPKI
BRANCH_DIRECT_JUMP: 0.0916
BRANCH_INDIRECT: 0
BRANCH_CONDITIONAL: 3.94
BRANCH_DIRECT_CALL: 0
BRANCH_INDIRECT_CALL: 0
BRANCH_RETURN: 0.0544

LLC TOTAL        ACCESS:     396212 HIT:     222777 MISS:     173435
LLC LOAD         ACCESS:      81777 HIT:      35886 MISS:      45891
LLC RFO          ACCESS:      27404 HIT:       8816 MISS:      18588
LLC PREFETCH     ACCESS:     250992 HIT:     165741 MISS:      85251
LLC WRITE        ACCESS:      33161 HIT:      10955 MISS:      22206
LLC TRANSLATION  ACCESS:       2878 HIT:       1379 MISS:       1499
LLC PREFETCH REQUESTED:          0 ISSUED:          0 USEFUL:          0 USELESS:          0
LLC AVERAGE MISS LATENCY: 461.6 cycles
cpu0_DTLB TOTAL        ACCESS:    4762290 HIT:    4700620 MISS:      61670
cpu0_DTLB LOAD         ACCESS:    4762290 HIT:    4700620 MISS:      61670
cpu0_DTLB RFO          ACCESS:          0 HIT:          0 MISS:          0
cpu0_DTLB PREFETCH     ACCESS:          0 HIT:          0 MISS:          0
cpu0_DTLB WRITE        ACCESS:          0 HIT:          0 MISS:          0
cpu0_DTLB TRANSLATION  ACCESS:          0 HIT:          0 MISS:          0
cpu0_DTLB PREFETCH REQUESTED:          0 ISSUED:          0 USEFUL:          0 USELESS:          0
cpu0_DTLB AVERAGE MISS LATENCY: 13.13 cycles
cpu0_ITLB TOTAL        ACCESS:       2949 HIT:       2949 MISS:          0
cpu0_ITLB LOAD         ACCESS:       2949 HIT:       2949 MISS:          0
cpu0_ITLB RFO          ACCESS:          0 HIT:          0 MISS:          0
cpu0_ITLB PREFETCH     ACCESS:          0 HIT:          0 MISS:          0
cpu0_ITLB WRITE        ACCESS:          0 HIT:          0 MISS:          0
cpu0_ITLB TRANSLATION  ACCESS:          0 HIT:          0 MISS:          0
cpu0_ITLB PREFETCH REQUESTED:          0 ISSUED:          0 USEFUL:          0 USELESS:          0
cpu0_ITLB AVERAGE MISS LATENCY: -nan cycles
cpu0_L1D TOTAL        ACCESS:    8881655 HIT:    6234346 MISS:    2647309
cpu0_L1D LOAD         ACCESS:    5413525 HIT:    4113656 MISS:    1299869
cpu0_L1D RFO          ACCESS:          0 HIT:          0 MISS:          0
cpu0_L1D PREFETCH     ACCESS:    3088181 HIT:    1858515 MISS:    1229666
cpu0_L1D WRITE        ACCESS:     373095 HIT:     260075 MISS:     113020
cpu0_L1D TRANSLATION  ACCESS:       6854 HIT:       2100 MISS:       4754
cpu0_L1D PREFETCH REQUESTED:    5491618 ISSUED:    3088180 USEFUL:     239533 USELESS:      29580
cpu0_L1D AVERAGE MISS LATENCY: 21.34 cycles
cpu0_L1I TOTAL        ACCESS:       3348 HIT:       3309 MISS:         39
cpu0_L1I LOAD         ACCESS:       3348 HIT:       3309 MISS:         39
cpu0_L1I RFO          ACCESS:          0 HIT:          0 MISS:          0
cpu0_L1I PREFETCH     ACCESS:          0 HIT:          0 MISS:          0
cpu0_L1I WRITE        ACCESS:          0 HIT:          0 MISS:          0
cpu0_L1I TRANSLATION  ACCESS:          0 HIT:          0 MISS:          0
cpu0_L1I PREFETCH REQUESTED:          0 ISSUED:          0 USEFUL:          0 USELESS:          0
cpu0_L1I AVERAGE MISS LATENCY: 135.9 cycles
cpu0_L2C TOTAL        ACCESS:     533317 HIT:     161773 MISS:     371544
cpu0_L2C LOAD         ACCESS:     115952 HIT:      33773 MISS:      82179
cpu0_L2C RFO          ACCESS:      29215 HIT:       1811 MISS:      27404
cpu0_L2C PREFETCH     ACCESS:     350384 HIT:      91432 MISS:     258952
cpu0_L2C WRITE        ACCESS:      33181 HIT:      33050 MISS:        131
cpu0_L2C TRANSLATION  ACCESS:       4585 HIT:       1707 MISS:       2878
cpu0_L2C PREFETCH REQUESTED:      81270 ISSUED:      81270 USEFUL:      18947 USELESS:       9468
cpu0_L2C AVERAGE MISS LATENCY: 234.5 cycles
cpu0_STLB TOTAL        ACCESS:      22116 HIT:      15262 MISS:       6854
cpu0_STLB LOAD         ACCESS:      22116 HIT:      15262 MISS:       6854
cpu0_STLB RFO          ACCESS:          0 HIT:          0 MISS:          0
cpu0_STLB PREFETCH     ACCESS:          0 HIT:          0 MISS:          0
cpu0_STLB WRITE        ACCESS:          0 HIT:          0 MISS:          0
cpu0_STLB TRANSLATION  ACCESS:          0 HIT:          0 MISS:          0
cpu0_STLB PREFETCH REQUESTED:          0 ISSUED:          0 USEFUL:          0 USELESS:          0
cpu0_STLB AVERAGE MISS LATENCY: 143.8 cycles

DRAM Statistics

Channel 0 RQ ROW_BUFFER_HIT:      86121
  ROW_BUFFER_MISS:      64934
 AVG DBUS CONGESTED CYCLE: 3.91
WQ ROW_BUFFER_HIT: Channel 0 
  ROW_BUFFER_MISS:       4522
  FULL:      17365
