WARNING: physical memory size is smaller than virtual memory size.

*** ChampSim Multicore Out-of-Order Simulator ***
Warmup Instructions: 25000000
Simulation Instructions: 25000000
Number of CPUs: 1
Page size: 4096

Off-chip DRAM Size: 4 GiB Channels: 1 Width: 64-bit Data Race: 800 MT/s
Heartbeat CPU 0 instructions: 10000003 cycles: 2531182 heartbeat IPC: 3.951 cumulative IPC: 3.951 (Simulation time: 00 hr 00 min 42 sec)
Heartbeat CPU 0 instructions: 20000000 cycles: 5062011 heartbeat IPC: 3.951 cumulative IPC: 3.951 (Simulation time: 00 hr 01 min 20 sec)
Warmup finished CPU 0 instructions: 25000001 cycles: 6327290 cumulative IPC: 3.951 (Simulation time: 00 hr 01 min 38 sec)
Warmup complete CPU 0 instructions: 25000001 cycles: 6327290 cumulative IPC: 3.951 (Simulation time: 00 hr 01 min 38 sec)
Heartbeat CPU 0 instructions: 30000003 cycles: 12036173 heartbeat IPC: 1.434 cumulative IPC: 0.8758 (Simulation time: 00 hr 02 min 33 sec)
Heartbeat CPU 0 instructions: 40000002 cycles: 23259541 heartbeat IPC: 0.891 cumulative IPC: 0.8859 (Simulation time: 00 hr 04 min 21 sec)
Heartbeat CPU 0 instructions: 50000003 cycles: 34232684 heartbeat IPC: 0.9113 cumulative IPC: 0.8959 (Simulation time: 00 hr 05 min 57 sec)
Simulation finished CPU 0 instructions: 25000002 cycles: 27905395 cumulative IPC: 0.8959 (Simulation time: 00 hr 05 min 57 sec)
Simulation complete CPU 0 instructions: 25000002 cycles: 27905395 cumulative IPC: 0.8959 (Simulation time: 00 hr 05 min 57 sec)

ChampSim completed all CPUs

=== Simulation ===
CPU 0 runs ./traces/sphinx3_883B.trace.xz
Region of Interest Statistics

CPU 0 cumulative IPC: 0.8959 instructions: 25000002 cycles: 27905395
CPU 0 Branch Prediction Accuracy: 93.21% MPKI: 6.577 Average ROB Occupancy at Mispredict: 169.7
Branch type MPKI
BRANCH_DIRECT_JUMP: 0.328
BRANCH_INDIRECT: 0
BRANCH_CONDITIONAL: 6.16
BRANCH_DIRECT_CALL: 0
BRANCH_INDIRECT_CALL: 0
BRANCH_RETURN: 0.0907

LLC TOTAL        ACCESS:     496441 HIT:     157968 MISS:     338473
LLC LOAD         ACCESS:     157428 HIT:      69773 MISS:      87655
LLC RFO          ACCESS:      20909 HIT:       4967 MISS:      15942
LLC PREFETCH     ACCESS:     277412 HIT:      68802 MISS:     208610
LLC WRITE        ACCESS:      34835 HIT:      10962 MISS:      23873
LLC TRANSLATION  ACCESS:       5857 HIT:       3464 MISS:       2393
LLC PREFETCH REQUESTED:          0 ISSUED:          0 USEFUL:          0 USELESS:          0
LLC AVERAGE MISS LATENCY: 427.4 cycles
cpu0_DTLB TOTAL        ACCESS:    5069789 HIT:    4933257 MISS:     136532
cpu0_DTLB LOAD         ACCESS:    5069789 HIT:    4933257 MISS:     136532
cpu0_DTLB RFO          ACCESS:          0 HIT:          0 MISS:          0
cpu0_DTLB PREFETCH     ACCESS:          0 HIT:          0 MISS:          0
cpu0_DTLB WRITE        ACCESS:          0 HIT:          0 MISS:          0
cpu0_DTLB TRANSLATION  ACCESS:          0 HIT:          0 MISS:          0
cpu0_DTLB PREFETCH REQUESTED:          0 ISSUED:          0 USEFUL:          0 USELESS:          0
cpu0_DTLB AVERAGE MISS LATENCY: 8.795 cycles
cpu0_ITLB TOTAL        ACCESS:       2000 HIT:       2000 MISS:          0
cpu0_ITLB LOAD         ACCESS:       2000 HIT:       2000 MISS:          0
cpu0_ITLB RFO          ACCESS:          0 HIT:          0 MISS:          0
cpu0_ITLB PREFETCH     ACCESS:          0 HIT:          0 MISS:          0
cpu0_ITLB WRITE        ACCESS:          0 HIT:          0 MISS:          0
cpu0_ITLB TRANSLATION  ACCESS:          0 HIT:          0 MISS:          0
cpu0_ITLB PREFETCH REQUESTED:          0 ISSUED:          0 USEFUL:          0 USELESS:          0
cpu0_ITLB AVERAGE MISS LATENCY: -nan cycles
cpu0_L1D TOTAL        ACCESS:   10011293 HIT:    5270292 MISS:    4741001
cpu0_L1D LOAD         ACCESS:    5591031 HIT:    2923880 MISS:    2667151
cpu0_L1D RFO          ACCESS:          0 HIT:          0 MISS:          0
cpu0_L1D PREFETCH     ACCESS:    3759692 HIT:    1783342 MISS:    1976350
cpu0_L1D WRITE        ACCESS:     643616 HIT:     558827 MISS:      84789
cpu0_L1D TRANSLATION  ACCESS:      16954 HIT:       4243 MISS:      12711
cpu0_L1D PREFETCH REQUESTED:    5682194 ISSUED:    3759695 USEFUL:     205615 USELESS:      88342
cpu0_L1D AVERAGE MISS LATENCY: 18.92 cycles
cpu0_L1I TOTAL        ACCESS:       2282 HIT:       2282 MISS:          0
cpu0_L1I LOAD         ACCESS:       2282 HIT:       2282 MISS:          0
cpu0_L1I RFO          ACCESS:          0 HIT:          0 MISS:          0
cpu0_L1I PREFETCH     ACCESS:          0 HIT:          0 MISS:          0
cpu0_L1I WRITE        ACCESS:          0 HIT:          0 MISS:          0
cpu0_L1I TRANSLATION  ACCESS:          0 HIT:          0 MISS:          0
cpu0_L1I PREFETCH REQUESTED:          0 ISSUED:          0 USEFUL:          0 USELESS:          0
cpu0_L1I AVERAGE MISS LATENCY: -nan cycles
cpu0_L2C TOTAL        ACCESS:     754273 HIT:     269620 MISS:     484653
cpu0_L2C LOAD         ACCESS:     289871 HIT:     131321 MISS:     158550
cpu0_L2C RFO          ACCESS:      25421 HIT:       4512 MISS:      20909
cpu0_L2C PREFETCH     ACCESS:     384661 HIT:      85426 MISS:     299235
cpu0_L2C WRITE        ACCESS:      41760 HIT:      41658 MISS:        102
cpu0_L2C TRANSLATION  ACCESS:      12560 HIT:       6703 MISS:       5857
cpu0_L2C PREFETCH REQUESTED:      90704 ISSUED:      90704 USEFUL:      23751 USELESS:      30713
cpu0_L2C AVERAGE MISS LATENCY: 317.1 cycles
cpu0_STLB TOTAL        ACCESS:      48438 HIT:      31480 MISS:      16958
cpu0_STLB LOAD         ACCESS:      48438 HIT:      31480 MISS:      16958
cpu0_STLB RFO          ACCESS:          0 HIT:          0 MISS:          0
cpu0_STLB PREFETCH     ACCESS:          0 HIT:          0 MISS:          0
cpu0_STLB WRITE        ACCESS:          0 HIT:          0 MISS:          0
cpu0_STLB TRANSLATION  ACCESS:          0 HIT:          0 MISS:          0
cpu0_STLB PREFETCH REQUESTED:          0 ISSUED:          0 USEFUL:          0 USELESS:          0
cpu0_STLB AVERAGE MISS LATENCY: 79.78 cycles

DRAM Statistics

Channel 0 RQ ROW_BUFFER_HIT:     181276
  ROW_BUFFER_MISS:     132615
 AVG DBUS CONGESTED CYCLE: 3.894
WQ ROW_BUFFER_HIT: Channel 0 
  ROW_BUFFER_MISS:       4630
  FULL:      22195
