WARNING: physical memory size is smaller than virtual memory size.

*** ChampSim Multicore Out-of-Order Simulator ***
Warmup Instructions: 25000000
Simulation Instructions: 25000000
Number of CPUs: 1
Page size: 4096

Off-chip DRAM Size: 4 GiB Channels: 1 Width: 64-bit Data Race: 800 MT/s
Heartbeat CPU 0 instructions: 10000000 cycles: 2549369 heartbeat IPC: 3.923 cumulative IPC: 3.923 (Simulation time: 00 hr 00 min 40 sec)
Heartbeat CPU 0 instructions: 20000002 cycles: 5100946 heartbeat IPC: 3.919 cumulative IPC: 3.921 (Simulation time: 00 hr 01 min 19 sec)
Warmup finished CPU 0 instructions: 25000001 cycles: 6387943 cumulative IPC: 3.914 (Simulation time: 00 hr 01 min 40 sec)
Warmup complete CPU 0 instructions: 25000001 cycles: 6387943 cumulative IPC: 3.914 (Simulation time: 00 hr 01 min 40 sec)
Heartbeat CPU 0 instructions: 30000003 cycles: 9605862 heartbeat IPC: 2.22 cumulative IPC: 1.554 (Simulation time: 00 hr 02 min 23 sec)
Heartbeat CPU 0 instructions: 40000001 cycles: 15957240 heartbeat IPC: 1.574 cumulative IPC: 1.568 (Simulation time: 00 hr 03 min 44 sec)
Heartbeat CPU 0 instructions: 50000002 cycles: 22724193 heartbeat IPC: 1.478 cumulative IPC: 1.53 (Simulation time: 00 hr 05 min 00 sec)
Simulation finished CPU 0 instructions: 25000001 cycles: 16336251 cumulative IPC: 1.53 (Simulation time: 00 hr 05 min 00 sec)
Simulation complete CPU 0 instructions: 25000001 cycles: 16336251 cumulative IPC: 1.53 (Simulation time: 00 hr 05 min 00 sec)

ChampSim completed all CPUs

=== Simulation ===
CPU 0 runs ./traces/sphinx3_2520B.trace.xz
Region of Interest Statistics

CPU 0 cumulative IPC: 1.53 instructions: 25000001 cycles: 16336251
CPU 0 Branch Prediction Accuracy: 96.09% MPKI: 3.369 Average ROB Occupancy at Mispredict: 226.8
Branch type MPKI
BRANCH_DIRECT_JUMP: 0.0225
BRANCH_INDIRECT: 0
BRANCH_CONDITIONAL: 3.32
BRANCH_DIRECT_CALL: 0
BRANCH_INDIRECT_CALL: 0
BRANCH_RETURN: 0.0303

LLC TOTAL        ACCESS:     358075 HIT:     181964 MISS:     176111
LLC LOAD         ACCESS:      48345 HIT:      30085 MISS:      18260
LLC RFO          ACCESS:      30281 HIT:      14964 MISS:      15317
LLC PREFETCH     ACCESS:     245609 HIT:     119537 MISS:     126072
LLC WRITE        ACCESS:      33747 HIT:      17312 MISS:      16435
LLC TRANSLATION  ACCESS:         93 HIT:         66 MISS:         27
LLC PREFETCH REQUESTED:          0 ISSUED:          0 USEFUL:          0 USELESS:          0
LLC AVERAGE MISS LATENCY: 411.6 cycles
cpu0_DTLB TOTAL        ACCESS:    4745795 HIT:    4722662 MISS:      23133
cpu0_DTLB LOAD         ACCESS:    4745795 HIT:    4722662 MISS:      23133
cpu0_DTLB RFO          ACCESS:          0 HIT:          0 MISS:          0
cpu0_DTLB PREFETCH     ACCESS:          0 HIT:          0 MISS:          0
cpu0_DTLB WRITE        ACCESS:          0 HIT:          0 MISS:          0
cpu0_DTLB TRANSLATION  ACCESS:          0 HIT:          0 MISS:          0
cpu0_DTLB PREFETCH REQUESTED:          0 ISSUED:          0 USEFUL:          0 USELESS:          0
cpu0_DTLB AVERAGE MISS LATENCY: 4.353 cycles
cpu0_ITLB TOTAL        ACCESS:       2978 HIT:       2975 MISS:          3
cpu0_ITLB LOAD         ACCESS:       2978 HIT:       2975 MISS:          3
cpu0_ITLB RFO          ACCESS:          0 HIT:          0 MISS:          0
cpu0_ITLB PREFETCH     ACCESS:          0 HIT:          0 MISS:          0
cpu0_ITLB WRITE        ACCESS:          0 HIT:          0 MISS:          0
cpu0_ITLB TRANSLATION  ACCESS:          0 HIT:          0 MISS:          0
cpu0_ITLB PREFETCH REQUESTED:          0 ISSUED:          0 USEFUL:          0 USELESS:          0
cpu0_ITLB AVERAGE MISS LATENCY: 14 cycles
cpu0_L1D TOTAL        ACCESS:    9329005 HIT:    5685306 MISS:    3643699
cpu0_L1D LOAD         ACCESS:    5398966 HIT:    3620663 MISS:    1778303
cpu0_L1D RFO          ACCESS:          0 HIT:          0 MISS:          0
cpu0_L1D PREFETCH     ACCESS:    3622653 HIT:    1874022 MISS:    1748631
cpu0_L1D WRITE        ACCESS:     307282 HIT:     190613 MISS:     116669
cpu0_L1D TRANSLATION  ACCESS:        104 HIT:          8 MISS:         96
cpu0_L1D PREFETCH REQUESTED:    5432553 ISSUED:    3622652 USEFUL:     253837 USELESS:       9797
cpu0_L1D AVERAGE MISS LATENCY: 10.86 cycles
cpu0_L1I TOTAL        ACCESS:       3368 HIT:       3283 MISS:         85
cpu0_L1I LOAD         ACCESS:       3368 HIT:       3283 MISS:         85
cpu0_L1I RFO          ACCESS:          0 HIT:          0 MISS:          0
cpu0_L1I PREFETCH     ACCESS:          0 HIT:          0 MISS:          0
cpu0_L1I WRITE        ACCESS:          0 HIT:          0 MISS:          0
cpu0_L1I TRANSLATION  ACCESS:          0 HIT:          0 MISS:          0
cpu0_L1I PREFETCH REQUESTED:          0 ISSUED:          0 USEFUL:          0 USELESS:          0
cpu0_L1I AVERAGE MISS LATENCY: 150.8 cycles
cpu0_L2C TOTAL        ACCESS:     466944 HIT:     139134 MISS:     327810
cpu0_L2C LOAD         ACCESS:      58687 HIT:       9991 MISS:      48696
cpu0_L2C RFO          ACCESS:      30776 HIT:        495 MISS:      30281
cpu0_L2C PREFETCH     ACCESS:     344965 HIT:      96324 MISS:     248641
cpu0_L2C WRITE        ACCESS:      32422 HIT:      32323 MISS:         99
cpu0_L2C TRANSLATION  ACCESS:         94 HIT:          1 MISS:         93
cpu0_L2C PREFETCH REQUESTED:      81330 ISSUED:      81330 USEFUL:      15138 USELESS:       2859
cpu0_L2C AVERAGE MISS LATENCY: 241.1 cycles
cpu0_STLB TOTAL        ACCESS:      12563 HIT:      12459 MISS:        104
cpu0_STLB LOAD         ACCESS:      12563 HIT:      12459 MISS:        104
cpu0_STLB RFO          ACCESS:          0 HIT:          0 MISS:          0
cpu0_STLB PREFETCH     ACCESS:          0 HIT:          0 MISS:          0
cpu0_STLB WRITE        ACCESS:          0 HIT:          0 MISS:          0
cpu0_STLB TRANSLATION  ACCESS:          0 HIT:          0 MISS:          0
cpu0_STLB PREFETCH REQUESTED:          0 ISSUED:          0 USEFUL:          0 USELESS:          0
cpu0_STLB AVERAGE MISS LATENCY: 456.3 cycles

DRAM Statistics

Channel 0 RQ ROW_BUFFER_HIT:     113561
  ROW_BUFFER_MISS:      46007
 AVG DBUS CONGESTED CYCLE: 3.902
WQ ROW_BUFFER_HIT: Channel 0 
  ROW_BUFFER_MISS:       5610
  FULL:      11774
