WARNING: physical memory size is smaller than virtual memory size.

*** ChampSim Multicore Out-of-Order Simulator ***
Warmup Instructions: 25000000
Simulation Instructions: 25000000
Number of CPUs: 1
Page size: 4096

Off-chip DRAM Size: 4 GiB Channels: 1 Width: 64-bit Data Race: 800 MT/s
Heartbeat CPU 0 instructions: 10000000 cycles: 2561001 heartbeat IPC: 3.905 cumulative IPC: 3.905 (Simulation time: 00 hr 00 min 46 sec)
Heartbeat CPU 0 instructions: 20000000 cycles: 5061001 heartbeat IPC: 4 cumulative IPC: 3.952 (Simulation time: 00 hr 01 min 32 sec)
Warmup finished CPU 0 instructions: 25000000 cycles: 6311027 cumulative IPC: 3.961 (Simulation time: 00 hr 01 min 52 sec)
Warmup complete CPU 0 instructions: 25000000 cycles: 6311027 cumulative IPC: 3.961 (Simulation time: 00 hr 01 min 52 sec)
Heartbeat CPU 0 instructions: 30000001 cycles: 13925631 heartbeat IPC: 1.128 cumulative IPC: 0.6566 (Simulation time: 00 hr 03 min 07 sec)
Heartbeat CPU 0 instructions: 40000000 cycles: 30340228 heartbeat IPC: 0.6092 cumulative IPC: 0.6242 (Simulation time: 00 hr 05 min 34 sec)
Heartbeat CPU 0 instructions: 50000000 cycles: 36392210 heartbeat IPC: 1.652 cumulative IPC: 0.8311 (Simulation time: 00 hr 06 min 21 sec)
Simulation finished CPU 0 instructions: 25000000 cycles: 30081184 cumulative IPC: 0.8311 (Simulation time: 00 hr 06 min 21 sec)
Simulation complete CPU 0 instructions: 25000000 cycles: 30081184 cumulative IPC: 0.8311 (Simulation time: 00 hr 06 min 21 sec)

ChampSim completed all CPUs

=== Simulation ===
CPU 0 runs ./traces/wrf_1228B.trace.xz
Region of Interest Statistics

CPU 0 cumulative IPC: 0.8311 instructions: 25000000 cycles: 30081184
CPU 0 Branch Prediction Accuracy: 94.36% MPKI: 2.773 Average ROB Occupancy at Mispredict: 261.4
Branch type MPKI
BRANCH_DIRECT_JUMP: 0.00028
BRANCH_INDIRECT: 0
BRANCH_CONDITIONAL: 2.77
BRANCH_DIRECT_CALL: 0.00032
BRANCH_INDIRECT_CALL: 0
BRANCH_RETURN: 0.0004

LLC TOTAL        ACCESS:     698430 HIT:     232146 MISS:     466284
LLC LOAD         ACCESS:      75350 HIT:      20377 MISS:      54973
LLC RFO          ACCESS:     114992 HIT:      43815 MISS:      71177
LLC PREFETCH     ACCESS:     296760 HIT:      65301 MISS:     231459
LLC WRITE        ACCESS:     211052 HIT:     102608 MISS:     108444
LLC TRANSLATION  ACCESS:        276 HIT:         45 MISS:        231
LLC PREFETCH REQUESTED:          0 ISSUED:          0 USEFUL:          0 USELESS:          0
LLC AVERAGE MISS LATENCY: 578.2 cycles
cpu0_DTLB TOTAL        ACCESS:    6296955 HIT:    6260841 MISS:      36114
cpu0_DTLB LOAD         ACCESS:    6296955 HIT:    6260841 MISS:      36114
cpu0_DTLB RFO          ACCESS:          0 HIT:          0 MISS:          0
cpu0_DTLB PREFETCH     ACCESS:          0 HIT:          0 MISS:          0
cpu0_DTLB WRITE        ACCESS:          0 HIT:          0 MISS:          0
cpu0_DTLB TRANSLATION  ACCESS:          0 HIT:          0 MISS:          0
cpu0_DTLB PREFETCH REQUESTED:          0 ISSUED:          0 USEFUL:          0 USELESS:          0
cpu0_DTLB AVERAGE MISS LATENCY: 11.7 cycles
cpu0_ITLB TOTAL        ACCESS:       4524 HIT:       4516 MISS:          8
cpu0_ITLB LOAD         ACCESS:       4524 HIT:       4516 MISS:          8
cpu0_ITLB RFO          ACCESS:          0 HIT:          0 MISS:          0
cpu0_ITLB PREFETCH     ACCESS:          0 HIT:          0 MISS:          0
cpu0_ITLB WRITE        ACCESS:          0 HIT:          0 MISS:          0
cpu0_ITLB TRANSLATION  ACCESS:          0 HIT:          0 MISS:          0
cpu0_ITLB PREFETCH REQUESTED:          0 ISSUED:          0 USEFUL:          0 USELESS:          0
cpu0_ITLB AVERAGE MISS LATENCY: 96.38 cycles
cpu0_L1D TOTAL        ACCESS:   11470124 HIT:    7240574 MISS:    4229550
cpu0_L1D LOAD         ACCESS:    6426122 HIT:    4399877 MISS:    2026245
cpu0_L1D RFO          ACCESS:          0 HIT:          0 MISS:          0
cpu0_L1D PREFETCH     ACCESS:    3200569 HIT:    1751343 MISS:    1449226
cpu0_L1D WRITE        ACCESS:    1839065 HIT:    1086917 MISS:     752148
cpu0_L1D TRANSLATION  ACCESS:       4368 HIT:       2437 MISS:       1931
cpu0_L1D PREFETCH REQUESTED:    6985441 ISSUED:    3200560 USEFUL:     370461 USELESS:       9368
cpu0_L1D AVERAGE MISS LATENCY: 49.38 cycles
cpu0_L1I TOTAL        ACCESS:       5068 HIT:       4410 MISS:        658
cpu0_L1I LOAD         ACCESS:       5068 HIT:       4410 MISS:        658
cpu0_L1I RFO          ACCESS:          0 HIT:          0 MISS:          0
cpu0_L1I PREFETCH     ACCESS:          0 HIT:          0 MISS:          0
cpu0_L1I WRITE        ACCESS:          0 HIT:          0 MISS:          0
cpu0_L1I TRANSLATION  ACCESS:          0 HIT:          0 MISS:          0
cpu0_L1I PREFETCH REQUESTED:          0 ISSUED:          0 USEFUL:          0 USELESS:          0
cpu0_L1I AVERAGE MISS LATENCY: 308.3 cycles
cpu0_L2C TOTAL        ACCESS:    1264201 HIT:     688287 MISS:     575914
cpu0_L2C LOAD         ACCESS:     218828 HIT:     122587 MISS:      96241
cpu0_L2C RFO          ACCESS:     160638 HIT:      45646 MISS:     114992
cpu0_L2C PREFETCH     ACCESS:     606291 HIT:     241928 MISS:     364363
cpu0_L2C WRITE        ACCESS:     276514 HIT:     276472 MISS:         42
cpu0_L2C TRANSLATION  ACCESS:       1930 HIT:       1654 MISS:        276
cpu0_L2C PREFETCH REQUESTED:     226464 ISSUED:     226464 USEFUL:      59378 USELESS:      11002
cpu0_L2C AVERAGE MISS LATENCY: 475 cycles
cpu0_STLB TOTAL        ACCESS:       8010 HIT:       3648 MISS:       4362
cpu0_STLB LOAD         ACCESS:       8010 HIT:       3648 MISS:       4362
cpu0_STLB RFO          ACCESS:          0 HIT:          0 MISS:          0
cpu0_STLB PREFETCH     ACCESS:          0 HIT:          0 MISS:          0
cpu0_STLB WRITE        ACCESS:          0 HIT:          0 MISS:          0
cpu0_STLB TRANSLATION  ACCESS:          0 HIT:          0 MISS:          0
cpu0_STLB PREFETCH REQUESTED:          0 ISSUED:          0 USEFUL:          0 USELESS:          0
cpu0_STLB AVERAGE MISS LATENCY: 155 cycles

DRAM Statistics

Channel 0 RQ ROW_BUFFER_HIT:      65204
  ROW_BUFFER_MISS:     278542
 AVG DBUS CONGESTED CYCLE: 3.928
WQ ROW_BUFFER_HIT: Channel 0 
  ROW_BUFFER_MISS:      27246
  FULL:      89092
