WARNING: physical memory size is smaller than virtual memory size.

*** ChampSim Multicore Out-of-Order Simulator ***
Warmup Instructions: 25000000
Simulation Instructions: 25000000
Number of CPUs: 1
Page size: 4096

Off-chip DRAM Size: 4 GiB Channels: 1 Width: 64-bit Data Race: 800 MT/s
Heartbeat CPU 0 instructions: 10000002 cycles: 2593486 heartbeat IPC: 3.856 cumulative IPC: 3.856 (Simulation time: 00 hr 00 min 39 sec)
Heartbeat CPU 0 instructions: 20000000 cycles: 5185126 heartbeat IPC: 3.859 cumulative IPC: 3.857 (Simulation time: 00 hr 01 min 17 sec)
Warmup finished CPU 0 instructions: 25000003 cycles: 6468825 cumulative IPC: 3.865 (Simulation time: 00 hr 01 min 37 sec)
Warmup complete CPU 0 instructions: 25000003 cycles: 6468825 cumulative IPC: 3.865 (Simulation time: 00 hr 01 min 37 sec)
Heartbeat CPU 0 instructions: 30000001 cycles: 8606674 heartbeat IPC: 2.923 cumulative IPC: 2.339 (Simulation time: 00 hr 02 min 06 sec)
Heartbeat CPU 0 instructions: 40000000 cycles: 12923921 heartbeat IPC: 2.316 cumulative IPC: 2.324 (Simulation time: 00 hr 02 min 57 sec)
Heartbeat CPU 0 instructions: 50000000 cycles: 17333290 heartbeat IPC: 2.268 cumulative IPC: 2.301 (Simulation time: 00 hr 03 min 48 sec)
Simulation finished CPU 0 instructions: 25000001 cycles: 10864467 cumulative IPC: 2.301 (Simulation time: 00 hr 03 min 48 sec)
Simulation complete CPU 0 instructions: 25000001 cycles: 10864467 cumulative IPC: 2.301 (Simulation time: 00 hr 03 min 48 sec)

ChampSim completed all CPUs

=== Simulation ===
CPU 0 runs ./traces/zeusmp_300B.trace.xz
Region of Interest Statistics

CPU 0 cumulative IPC: 2.301 instructions: 25000001 cycles: 10864467
CPU 0 Branch Prediction Accuracy: 98.82% MPKI: 0.461 Average ROB Occupancy at Mispredict: 220.3
Branch type MPKI
BRANCH_DIRECT_JUMP: 0.0227
BRANCH_INDIRECT: 0
BRANCH_CONDITIONAL: 0.438
BRANCH_DIRECT_CALL: 0
BRANCH_INDIRECT_CALL: 0
BRANCH_RETURN: 0

LLC TOTAL        ACCESS:     166951 HIT:      52383 MISS:     114568
LLC LOAD         ACCESS:      21438 HIT:       1464 MISS:      19974
LLC RFO          ACCESS:      38423 HIT:      14979 MISS:      23444
LLC PREFETCH     ACCESS:      65938 HIT:      14856 MISS:      51082
LLC WRITE        ACCESS:      39589 HIT:      20909 MISS:      18680
LLC TRANSLATION  ACCESS:       1563 HIT:        175 MISS:       1388
LLC PREFETCH REQUESTED:          0 ISSUED:          0 USEFUL:          0 USELESS:          0
LLC AVERAGE MISS LATENCY: 462.3 cycles
cpu0_DTLB TOTAL        ACCESS:    4255790 HIT:    3945246 MISS:     310544
cpu0_DTLB LOAD         ACCESS:    4255790 HIT:    3945246 MISS:     310544
cpu0_DTLB RFO          ACCESS:          0 HIT:          0 MISS:          0
cpu0_DTLB PREFETCH     ACCESS:          0 HIT:          0 MISS:          0
cpu0_DTLB WRITE        ACCESS:          0 HIT:          0 MISS:          0
cpu0_DTLB TRANSLATION  ACCESS:          0 HIT:          0 MISS:          0
cpu0_DTLB PREFETCH REQUESTED:          0 ISSUED:          0 USEFUL:          0 USELESS:          0
cpu0_DTLB AVERAGE MISS LATENCY: 11.05 cycles
cpu0_ITLB TOTAL        ACCESS:      95191 HIT:      95191 MISS:          0
cpu0_ITLB LOAD         ACCESS:      95191 HIT:      95191 MISS:          0
cpu0_ITLB RFO          ACCESS:          0 HIT:          0 MISS:          0
cpu0_ITLB PREFETCH     ACCESS:          0 HIT:          0 MISS:          0
cpu0_ITLB WRITE        ACCESS:          0 HIT:          0 MISS:          0
cpu0_ITLB TRANSLATION  ACCESS:          0 HIT:          0 MISS:          0
cpu0_ITLB PREFETCH REQUESTED:          0 ISSUED:          0 USEFUL:          0 USELESS:          0
cpu0_ITLB AVERAGE MISS LATENCY: -nan cycles
cpu0_L1D TOTAL        ACCESS:    6895853 HIT:    5190855 MISS:    1704998
cpu0_L1D LOAD         ACCESS:    3174371 HIT:    2584963 MISS:     589408
cpu0_L1D RFO          ACCESS:          0 HIT:          0 MISS:          0
cpu0_L1D PREFETCH     ACCESS:    1574047 HIT:    1099786 MISS:     474261
cpu0_L1D WRITE        ACCESS:    2145395 HIT:    1506090 MISS:     639305
cpu0_L1D TRANSLATION  ACCESS:       2040 HIT:         16 MISS:       2024
cpu0_L1D PREFETCH REQUESTED:    3800860 ISSUED:    1574046 USEFUL:      78033 USELESS:     225650
cpu0_L1D AVERAGE MISS LATENCY: 33.94 cycles
cpu0_L1I TOTAL        ACCESS:     119574 HIT:     119574 MISS:          0
cpu0_L1I LOAD         ACCESS:     119574 HIT:     119574 MISS:          0
cpu0_L1I RFO          ACCESS:          0 HIT:          0 MISS:          0
cpu0_L1I PREFETCH     ACCESS:          0 HIT:          0 MISS:          0
cpu0_L1I WRITE        ACCESS:          0 HIT:          0 MISS:          0
cpu0_L1I TRANSLATION  ACCESS:          0 HIT:          0 MISS:          0
cpu0_L1I PREFETCH REQUESTED:          0 ISSUED:          0 USEFUL:          0 USELESS:          0
cpu0_L1I AVERAGE MISS LATENCY: -nan cycles
cpu0_L2C TOTAL        ACCESS:    1361308 HIT:    1206185 MISS:     155123
cpu0_L2C LOAD         ACCESS:     454355 HIT:     431449 MISS:      22906
cpu0_L2C RFO          ACCESS:     201467 HIT:     163044 MISS:      38423
cpu0_L2C PREFETCH     ACCESS:     438690 HIT:     346467 MISS:      92223
cpu0_L2C WRITE        ACCESS:     264777 HIT:     264769 MISS:          8
cpu0_L2C TRANSLATION  ACCESS:       2019 HIT:        456 MISS:       1563
cpu0_L2C PREFETCH REQUESTED:     134840 ISSUED:     134840 USEFUL:       2080 USELESS:      11508
cpu0_L2C AVERAGE MISS LATENCY: 355.3 cycles
cpu0_STLB TOTAL        ACCESS:     275618 HIT:     273913 MISS:       1705
cpu0_STLB LOAD         ACCESS:     275618 HIT:     273913 MISS:       1705
cpu0_STLB RFO          ACCESS:          0 HIT:          0 MISS:          0
cpu0_STLB PREFETCH     ACCESS:          0 HIT:          0 MISS:          0
cpu0_STLB WRITE        ACCESS:          0 HIT:          0 MISS:          0
cpu0_STLB TRANSLATION  ACCESS:          0 HIT:          0 MISS:          0
cpu0_STLB PREFETCH REQUESTED:          0 ISSUED:          0 USEFUL:          0 USELESS:          0
cpu0_STLB AVERAGE MISS LATENCY: 820.6 cycles

DRAM Statistics

Channel 0 RQ ROW_BUFFER_HIT:      25004
  ROW_BUFFER_MISS:      67912
 AVG DBUS CONGESTED CYCLE: 3.934
WQ ROW_BUFFER_HIT: Channel 0 
  ROW_BUFFER_MISS:       2167
  FULL:      20916
