WARNING: physical memory size is smaller than virtual memory size.

*** ChampSim Multicore Out-of-Order Simulator ***
Warmup Instructions: 25000000
Simulation Instructions: 25000000
Number of CPUs: 1
Page size: 4096

Off-chip DRAM Size: 4 GiB Channels: 1 Width: 64-bit Data Race: 800 MT/s
Heartbeat CPU 0 instructions: 10000002 cycles: 2500136 heartbeat IPC: 4 cumulative IPC: 4 (Simulation time: 00 hr 00 min 32 sec)
Heartbeat CPU 0 instructions: 20000003 cycles: 5000151 heartbeat IPC: 4 cumulative IPC: 4 (Simulation time: 00 hr 01 min 10 sec)
Warmup finished CPU 0 instructions: 25000003 cycles: 6250152 cumulative IPC: 4 (Simulation time: 00 hr 01 min 29 sec)
Warmup complete CPU 0 instructions: 25000003 cycles: 6250152 cumulative IPC: 4 (Simulation time: 00 hr 01 min 29 sec)
Heartbeat CPU 0 instructions: 30000000 cycles: 14050627 heartbeat IPC: 1.105 cumulative IPC: 0.641 (Simulation time: 00 hr 02 min 41 sec)
Heartbeat CPU 0 instructions: 40000000 cycles: 29744305 heartbeat IPC: 0.6372 cumulative IPC: 0.6385 (Simulation time: 00 hr 04 min 50 sec)
Heartbeat CPU 0 instructions: 50000003 cycles: 45363335 heartbeat IPC: 0.6402 cumulative IPC: 0.6392 (Simulation time: 00 hr 06 min 42 sec)
Simulation finished CPU 0 instructions: 25000000 cycles: 39113184 cumulative IPC: 0.6392 (Simulation time: 00 hr 06 min 42 sec)
Simulation complete CPU 0 instructions: 25000000 cycles: 39113184 cumulative IPC: 0.6392 (Simulation time: 00 hr 06 min 42 sec)

ChampSim completed all CPUs

=== Simulation ===
CPU 0 runs ./traces/603.bwaves_s-2609B.champsimtrace.xz
Region of Interest Statistics

CPU 0 cumulative IPC: 0.6392 instructions: 25000000 cycles: 39113184
CPU 0 Branch Prediction Accuracy: 81.23% MPKI: 4.685 Average ROB Occupancy at Mispredict: 300.6
Branch type MPKI
BRANCH_DIRECT_JUMP: 0
BRANCH_INDIRECT: 0
BRANCH_CONDITIONAL: 4.68
BRANCH_DIRECT_CALL: 0
BRANCH_INDIRECT_CALL: 0
BRANCH_RETURN: 0

LLC TOTAL        ACCESS:     503369 HIT:      21746 MISS:     481623
LLC LOAD         ACCESS:     236390 HIT:      10580 MISS:     225810
LLC RFO          ACCESS:      12181 HIT:          0 MISS:      12181
LLC PREFETCH     ACCESS:     242407 HIT:       1537 MISS:     240870
LLC WRITE        ACCESS:      12256 HIT:       9530 MISS:       2726
LLC TRANSLATION  ACCESS:        135 HIT:         99 MISS:         36
LLC PREFETCH REQUESTED:          0 ISSUED:          0 USEFUL:          0 USELESS:          0
LLC AVERAGE MISS LATENCY: 1024 cycles
cpu0_DTLB TOTAL        ACCESS:    6671329 HIT:    6647552 MISS:      23777
cpu0_DTLB LOAD         ACCESS:    6671329 HIT:    6647552 MISS:      23777
cpu0_DTLB RFO          ACCESS:          0 HIT:          0 MISS:          0
cpu0_DTLB PREFETCH     ACCESS:          0 HIT:          0 MISS:          0
cpu0_DTLB WRITE        ACCESS:          0 HIT:          0 MISS:          0
cpu0_DTLB TRANSLATION  ACCESS:          0 HIT:          0 MISS:          0
cpu0_DTLB PREFETCH REQUESTED:          0 ISSUED:          0 USEFUL:          0 USELESS:          0
cpu0_DTLB AVERAGE MISS LATENCY: 57.11 cycles
cpu0_ITLB TOTAL        ACCESS:          0 HIT:          0 MISS:          0
cpu0_ITLB LOAD         ACCESS:          0 HIT:          0 MISS:          0
cpu0_ITLB RFO          ACCESS:          0 HIT:          0 MISS:          0
cpu0_ITLB PREFETCH     ACCESS:          0 HIT:          0 MISS:          0
cpu0_ITLB WRITE        ACCESS:          0 HIT:          0 MISS:          0
cpu0_ITLB TRANSLATION  ACCESS:          0 HIT:          0 MISS:          0
cpu0_ITLB PREFETCH REQUESTED:          0 ISSUED:          0 USEFUL:          0 USELESS:          0
cpu0_ITLB AVERAGE MISS LATENCY: -nan cycles
cpu0_L1D TOTAL        ACCESS:    9593396 HIT:    8364864 MISS:    1228532
cpu0_L1D LOAD         ACCESS:    6387894 HIT:    5631795 MISS:     756099
cpu0_L1D RFO          ACCESS:          0 HIT:          0 MISS:          0
cpu0_L1D PREFETCH     ACCESS:    1789707 HIT:    1387722 MISS:     401985
cpu0_L1D WRITE        ACCESS:    1408364 HIT:    1345086 MISS:      63278
cpu0_L1D TRANSLATION  ACCESS:       7431 HIT:        261 MISS:       7170
cpu0_L1D PREFETCH REQUESTED:    9470109 ISSUED:    1789714 USEFUL:     192039 USELESS:       5953
cpu0_L1D AVERAGE MISS LATENCY: 226.4 cycles
cpu0_L1I TOTAL        ACCESS:          0 HIT:          0 MISS:          0
cpu0_L1I LOAD         ACCESS:          0 HIT:          0 MISS:          0
cpu0_L1I RFO          ACCESS:          0 HIT:          0 MISS:          0
cpu0_L1I PREFETCH     ACCESS:          0 HIT:          0 MISS:          0
cpu0_L1I WRITE        ACCESS:          0 HIT:          0 MISS:          0
cpu0_L1I TRANSLATION  ACCESS:          0 HIT:          0 MISS:          0
cpu0_L1I PREFETCH REQUESTED:          0 ISSUED:          0 USEFUL:          0 USELESS:          0
cpu0_L1I AVERAGE MISS LATENCY: -nan cycles
cpu0_L2C TOTAL        ACCESS:     693228 HIT:     111400 MISS:     581828
cpu0_L2C LOAD         ACCESS:     311409 HIT:      46923 MISS:     264486
cpu0_L2C RFO          ACCESS:      14855 HIT:       2673 MISS:      12182
cpu0_L2C PREFETCH     ACCESS:     343497 HIT:      38557 MISS:     304940
cpu0_L2C WRITE        ACCESS:      16297 HIT:      16212 MISS:         85
cpu0_L2C TRANSLATION  ACCESS:       7170 HIT:       7035 MISS:        135
cpu0_L2C PREFETCH REQUESTED:     145498 ISSUED:     145498 USEFUL:      61662 USELESS:      11219
cpu0_L2C AVERAGE MISS LATENCY: 816.8 cycles
cpu0_STLB TOTAL        ACCESS:      13784 HIT:       6367 MISS:       7417
cpu0_STLB LOAD         ACCESS:      13784 HIT:       6367 MISS:       7417
cpu0_STLB RFO          ACCESS:          0 HIT:          0 MISS:          0
cpu0_STLB PREFETCH     ACCESS:          0 HIT:          0 MISS:          0
cpu0_STLB WRITE        ACCESS:          0 HIT:          0 MISS:          0
cpu0_STLB TRANSLATION  ACCESS:          0 HIT:          0 MISS:          0
cpu0_STLB PREFETCH REQUESTED:          0 ISSUED:          0 USEFUL:          0 USELESS:          0
cpu0_STLB AVERAGE MISS LATENCY: 219.4 cycles

DRAM Statistics

Channel 0 RQ ROW_BUFFER_HIT:     340381
  ROW_BUFFER_MISS:     135145
 AVG DBUS CONGESTED CYCLE: 3.762
WQ ROW_BUFFER_HIT: Channel 0 
  ROW_BUFFER_MISS:        377
  FULL:      11646
