WARNING: physical memory size is smaller than virtual memory size.

*** ChampSim Multicore Out-of-Order Simulator ***
Warmup Instructions: 25000000
Simulation Instructions: 25000000
Number of CPUs: 1
Page size: 4096

Off-chip DRAM Size: 4 GiB Channels: 1 Width: 64-bit Data Race: 800 MT/s
Heartbeat CPU 0 instructions: 10000000 cycles: 3099480 heartbeat IPC: 3.226 cumulative IPC: 3.226 (Simulation time: 00 hr 00 min 34 sec)
Heartbeat CPU 0 instructions: 20000003 cycles: 6152965 heartbeat IPC: 3.275 cumulative IPC: 3.25 (Simulation time: 00 hr 01 min 15 sec)
Warmup finished CPU 0 instructions: 25000002 cycles: 7641586 cumulative IPC: 3.272 (Simulation time: 00 hr 01 min 35 sec)
Warmup complete CPU 0 instructions: 25000002 cycles: 7641586 cumulative IPC: 3.272 (Simulation time: 00 hr 01 min 35 sec)
Heartbeat CPU 0 instructions: 30000000 cycles: 17102413 heartbeat IPC: 0.9133 cumulative IPC: 0.5285 (Simulation time: 00 hr 02 min 44 sec)
Heartbeat CPU 0 instructions: 40000000 cycles: 36229324 heartbeat IPC: 0.5228 cumulative IPC: 0.5247 (Simulation time: 00 hr 04 min 44 sec)
Heartbeat CPU 0 instructions: 50000000 cycles: 60374361 heartbeat IPC: 0.4142 cumulative IPC: 0.4741 (Simulation time: 00 hr 06 min 52 sec)
Simulation finished CPU 0 instructions: 25000002 cycles: 52732777 cumulative IPC: 0.4741 (Simulation time: 00 hr 06 min 52 sec)
Simulation complete CPU 0 instructions: 25000002 cycles: 52732777 cumulative IPC: 0.4741 (Simulation time: 00 hr 06 min 52 sec)

ChampSim completed all CPUs

=== Simulation ===
CPU 0 runs ./traces/605.mcf_s-484B.champsimtrace.xz
Region of Interest Statistics

CPU 0 cumulative IPC: 0.4741 instructions: 25000002 cycles: 52732777
CPU 0 Branch Prediction Accuracy: 96.99% MPKI: 2.864 Average ROB Occupancy at Mispredict: 78.97
Branch type MPKI
BRANCH_DIRECT_JUMP: 0
BRANCH_INDIRECT: 0
BRANCH_CONDITIONAL: 2.86
BRANCH_DIRECT_CALL: 0
BRANCH_INDIRECT_CALL: 0
BRANCH_RETURN: 0

LLC TOTAL        ACCESS:     899778 HIT:     171038 MISS:     728740
LLC LOAD         ACCESS:     407796 HIT:      21121 MISS:     386675
LLC RFO          ACCESS:      47377 HIT:         42 MISS:      47335
LLC PREFETCH     ACCESS:     298083 HIT:       8751 MISS:     289332
LLC WRITE        ACCESS:     143240 HIT:     139209 MISS:       4031
LLC TRANSLATION  ACCESS:       3282 HIT:       1915 MISS:       1367
LLC PREFETCH REQUESTED:          0 ISSUED:          0 USEFUL:          0 USELESS:          0
LLC AVERAGE MISS LATENCY: 704.1 cycles
cpu0_DTLB TOTAL        ACCESS:    7874345 HIT:    7760284 MISS:     114061
cpu0_DTLB LOAD         ACCESS:    7874345 HIT:    7760284 MISS:     114061
cpu0_DTLB RFO          ACCESS:          0 HIT:          0 MISS:          0
cpu0_DTLB PREFETCH     ACCESS:          0 HIT:          0 MISS:          0
cpu0_DTLB WRITE        ACCESS:          0 HIT:          0 MISS:          0
cpu0_DTLB TRANSLATION  ACCESS:          0 HIT:          0 MISS:          0
cpu0_DTLB PREFETCH REQUESTED:          0 ISSUED:          0 USEFUL:          0 USELESS:          0
cpu0_DTLB AVERAGE MISS LATENCY: 28.32 cycles
cpu0_ITLB TOTAL        ACCESS:          0 HIT:          0 MISS:          0
cpu0_ITLB LOAD         ACCESS:          0 HIT:          0 MISS:          0
cpu0_ITLB RFO          ACCESS:          0 HIT:          0 MISS:          0
cpu0_ITLB PREFETCH     ACCESS:          0 HIT:          0 MISS:          0
cpu0_ITLB WRITE        ACCESS:          0 HIT:          0 MISS:          0
cpu0_ITLB TRANSLATION  ACCESS:          0 HIT:          0 MISS:          0
cpu0_ITLB PREFETCH REQUESTED:          0 ISSUED:          0 USEFUL:          0 USELESS:          0
cpu0_ITLB AVERAGE MISS LATENCY: -nan cycles
cpu0_L1D TOTAL        ACCESS:   13385793 HIT:   12481495 MISS:     904298
cpu0_L1D LOAD         ACCESS:    4614790 HIT:    4098949 MISS:     515841
cpu0_L1D RFO          ACCESS:          0 HIT:          0 MISS:          0
cpu0_L1D PREFETCH     ACCESS:    1558198 HIT:    1396892 MISS:     161306
cpu0_L1D WRITE        ACCESS:    7197520 HIT:    6979061 MISS:     218459
cpu0_L1D TRANSLATION  ACCESS:      15285 HIT:       6593 MISS:       8692
cpu0_L1D PREFETCH REQUESTED:   19182695 ISSUED:    1558198 USEFUL:      12627 USELESS:      73773
cpu0_L1D AVERAGE MISS LATENCY: 454.6 cycles
cpu0_L1I TOTAL        ACCESS:          0 HIT:          0 MISS:          0
cpu0_L1I LOAD         ACCESS:          0 HIT:          0 MISS:          0
cpu0_L1I RFO          ACCESS:          0 HIT:          0 MISS:          0
cpu0_L1I PREFETCH     ACCESS:          0 HIT:          0 MISS:          0
cpu0_L1I WRITE        ACCESS:          0 HIT:          0 MISS:          0
cpu0_L1I TRANSLATION  ACCESS:          0 HIT:          0 MISS:          0
cpu0_L1I PREFETCH REQUESTED:          0 ISSUED:          0 USEFUL:          0 USELESS:          0
cpu0_L1I AVERAGE MISS LATENCY: -nan cycles
cpu0_L2C TOTAL        ACCESS:    1053560 HIT:     273974 MISS:     779586
cpu0_L2C LOAD         ACCESS:     482565 HIT:      63597 MISS:     418968
cpu0_L2C RFO          ACCESS:      49396 HIT:       2019 MISS:      47377
cpu0_L2C PREFETCH     ACCESS:     353467 HIT:      44202 MISS:     309265
cpu0_L2C WRITE        ACCESS:     159440 HIT:     158746 MISS:        694
cpu0_L2C TRANSLATION  ACCESS:       8692 HIT:       5410 MISS:       3282
cpu0_L2C PREFETCH REQUESTED:     266991 ISSUED:     266991 USEFUL:      71087 USELESS:       8033
cpu0_L2C AVERAGE MISS LATENCY: 577.5 cycles
cpu0_STLB TOTAL        ACCESS:      54649 HIT:      39390 MISS:      15259
cpu0_STLB LOAD         ACCESS:      54649 HIT:      39390 MISS:      15259
cpu0_STLB RFO          ACCESS:          0 HIT:          0 MISS:          0
cpu0_STLB PREFETCH     ACCESS:          0 HIT:          0 MISS:          0
cpu0_STLB WRITE        ACCESS:          0 HIT:          0 MISS:          0
cpu0_STLB TRANSLATION  ACCESS:          0 HIT:          0 MISS:          0
cpu0_STLB PREFETCH REQUESTED:          0 ISSUED:          0 USEFUL:          0 USELESS:          0
cpu0_STLB AVERAGE MISS LATENCY: 317.1 cycles

DRAM Statistics

Channel 0 RQ ROW_BUFFER_HIT:     277394
  ROW_BUFFER_MISS:     347031
 AVG DBUS CONGESTED CYCLE: 3.92
WQ ROW_BUFFER_HIT: Channel 0 
  ROW_BUFFER_MISS:       6289
  FULL:     126435
