WARNING: physical memory size is smaller than virtual memory size.

*** ChampSim Multicore Out-of-Order Simulator ***
Warmup Instructions: 25000000
Simulation Instructions: 25000000
Number of CPUs: 1
Page size: 4096

Off-chip DRAM Size: 4 GiB Channels: 1 Width: 64-bit Data Race: 800 MT/s
Heartbeat CPU 0 instructions: 10000001 cycles: 2504948 heartbeat IPC: 3.992 cumulative IPC: 3.992 (Simulation time: 00 hr 00 min 31 sec)
Heartbeat CPU 0 instructions: 20000000 cycles: 5005886 heartbeat IPC: 3.998 cumulative IPC: 3.995 (Simulation time: 00 hr 01 min 08 sec)
Warmup finished CPU 0 instructions: 25000000 cycles: 6257440 cumulative IPC: 3.995 (Simulation time: 00 hr 01 min 26 sec)
Warmup complete CPU 0 instructions: 25000000 cycles: 6257440 cumulative IPC: 3.995 (Simulation time: 00 hr 01 min 26 sec)
Heartbeat CPU 0 instructions: 30000000 cycles: 16777965 heartbeat IPC: 0.8495 cumulative IPC: 0.4753 (Simulation time: 00 hr 02 min 32 sec)
Heartbeat CPU 0 instructions: 40000003 cycles: 37531217 heartbeat IPC: 0.4819 cumulative IPC: 0.4796 (Simulation time: 00 hr 04 min 30 sec)
Heartbeat CPU 0 instructions: 50000003 cycles: 63721968 heartbeat IPC: 0.3818 cumulative IPC: 0.4351 (Simulation time: 00 hr 06 min 34 sec)
Simulation finished CPU 0 instructions: 25000003 cycles: 57464529 cumulative IPC: 0.4351 (Simulation time: 00 hr 06 min 34 sec)
Simulation complete CPU 0 instructions: 25000003 cycles: 57464529 cumulative IPC: 0.4351 (Simulation time: 00 hr 06 min 34 sec)

ChampSim completed all CPUs

=== Simulation ===
CPU 0 runs ./traces/623.xalancbmk_s-10B.champsimtrace.xz
Region of Interest Statistics

CPU 0 cumulative IPC: 0.4351 instructions: 25000003 cycles: 57464529
CPU 0 Branch Prediction Accuracy: 94.41% MPKI: 14.5 Average ROB Occupancy at Mispredict: 39.88
Branch type MPKI
BRANCH_DIRECT_JUMP: 0.0934
BRANCH_INDIRECT: 0.0223
BRANCH_CONDITIONAL: 13.9
BRANCH_DIRECT_CALL: 4e-05
BRANCH_INDIRECT_CALL: 0.127
BRANCH_RETURN: 0.402

LLC TOTAL        ACCESS:     962560 HIT:     180337 MISS:     782223
LLC LOAD         ACCESS:     632512 HIT:     120876 MISS:     511636
LLC RFO          ACCESS:       5960 HIT:       3474 MISS:       2486
LLC PREFETCH     ACCESS:     278310 HIT:      38036 MISS:     240274
LLC WRITE        ACCESS:      13116 HIT:      13103 MISS:         13
LLC TRANSLATION  ACCESS:      32662 HIT:       4848 MISS:      27814
LLC PREFETCH REQUESTED:          0 ISSUED:          0 USEFUL:          0 USELESS:          0
LLC AVERAGE MISS LATENCY: 324.1 cycles
cpu0_DTLB TOTAL        ACCESS:    5868906 HIT:    5490062 MISS:     378844
cpu0_DTLB LOAD         ACCESS:    5868906 HIT:    5490062 MISS:     378844
cpu0_DTLB RFO          ACCESS:          0 HIT:          0 MISS:          0
cpu0_DTLB PREFETCH     ACCESS:          0 HIT:          0 MISS:          0
cpu0_DTLB WRITE        ACCESS:          0 HIT:          0 MISS:          0
cpu0_DTLB TRANSLATION  ACCESS:          0 HIT:          0 MISS:          0
cpu0_DTLB PREFETCH REQUESTED:          0 ISSUED:          0 USEFUL:          0 USELESS:          0
cpu0_DTLB AVERAGE MISS LATENCY: 30.84 cycles
cpu0_ITLB TOTAL        ACCESS:     344087 HIT:     302819 MISS:      41268
cpu0_ITLB LOAD         ACCESS:     344087 HIT:     302819 MISS:      41268
cpu0_ITLB RFO          ACCESS:          0 HIT:          0 MISS:          0
cpu0_ITLB PREFETCH     ACCESS:          0 HIT:          0 MISS:          0
cpu0_ITLB WRITE        ACCESS:          0 HIT:          0 MISS:          0
cpu0_ITLB TRANSLATION  ACCESS:          0 HIT:          0 MISS:          0
cpu0_ITLB PREFETCH REQUESTED:          0 ISSUED:          0 USEFUL:          0 USELESS:          0
cpu0_ITLB AVERAGE MISS LATENCY: 6.943 cycles
cpu0_L1D TOTAL        ACCESS:   12292686 HIT:    9988553 MISS:    2304133
cpu0_L1D LOAD         ACCESS:    6087347 HIT:    4858495 MISS:    1228852
cpu0_L1D RFO          ACCESS:          0 HIT:          0 MISS:          0
cpu0_L1D PREFETCH     ACCESS:    4846273 HIT:    3900249 MISS:     946024
cpu0_L1D WRITE        ACCESS:    1231537 HIT:    1154928 MISS:      76609
cpu0_L1D TRANSLATION  ACCESS:     127529 HIT:      74881 MISS:      52648
cpu0_L1D PREFETCH REQUESTED:    6088689 ISSUED:    4846276 USEFUL:      39039 USELESS:     275288
cpu0_L1D AVERAGE MISS LATENCY: 121.6 cycles
cpu0_L1I TOTAL        ACCESS:     382677 HIT:     245007 MISS:     137670
cpu0_L1I LOAD         ACCESS:     382677 HIT:     245007 MISS:     137670
cpu0_L1I RFO          ACCESS:          0 HIT:          0 MISS:          0
cpu0_L1I PREFETCH     ACCESS:          0 HIT:          0 MISS:          0
cpu0_L1I WRITE        ACCESS:          0 HIT:          0 MISS:          0
cpu0_L1I TRANSLATION  ACCESS:          0 HIT:          0 MISS:          0
cpu0_L1I PREFETCH REQUESTED:          0 ISSUED:          0 USEFUL:          0 USELESS:          0
cpu0_L1I AVERAGE MISS LATENCY: 14.34 cycles
cpu0_L2C TOTAL        ACCESS:    1230197 HIT:     278586 MISS:     951611
cpu0_L2C LOAD         ACCESS:     776593 HIT:     143592 MISS:     633001
cpu0_L2C RFO          ACCESS:      18760 HIT:      12799 MISS:       5961
cpu0_L2C PREFETCH     ACCESS:     335712 HIT:      55981 MISS:     279731
cpu0_L2C WRITE        ACCESS:      46873 HIT:      46617 MISS:        256
cpu0_L2C TRANSLATION  ACCESS:      52259 HIT:      19597 MISS:      32662
cpu0_L2C PREFETCH REQUESTED:      21346 ISSUED:      21346 USEFUL:       6341 USELESS:       6491
cpu0_L2C AVERAGE MISS LATENCY: 287 cycles
cpu0_STLB TOTAL        ACCESS:     186135 HIT:      59275 MISS:     126860
cpu0_STLB LOAD         ACCESS:     186135 HIT:      59275 MISS:     126860
cpu0_STLB RFO          ACCESS:          0 HIT:          0 MISS:          0
cpu0_STLB PREFETCH     ACCESS:          0 HIT:          0 MISS:          0
cpu0_STLB WRITE        ACCESS:          0 HIT:          0 MISS:          0
cpu0_STLB TRANSLATION  ACCESS:          0 HIT:          0 MISS:          0
cpu0_STLB PREFETCH REQUESTED:          0 ISSUED:          0 USEFUL:          0 USELESS:          0
cpu0_STLB AVERAGE MISS LATENCY: 87.25 cycles

DRAM Statistics

Channel 0 RQ ROW_BUFFER_HIT:     444804
  ROW_BUFFER_MISS:     337347
 AVG DBUS CONGESTED CYCLE: 3.868
WQ ROW_BUFFER_HIT: Channel 0 
  ROW_BUFFER_MISS:       1264
  FULL:       3258
