WARNING: physical memory size is smaller than virtual memory size.

*** ChampSim Multicore Out-of-Order Simulator ***
Warmup Instructions: 25000000
Simulation Instructions: 25000000
Number of CPUs: 1
Page size: 4096

Off-chip DRAM Size: 4 GiB Channels: 1 Width: 64-bit Data Race: 800 MT/s
Heartbeat CPU 0 instructions: 10000001 cycles: 2500075 heartbeat IPC: 4 cumulative IPC: 4 (Simulation time: 00 hr 00 min 26 sec)
Heartbeat CPU 0 instructions: 20000001 cycles: 5000075 heartbeat IPC: 4 cumulative IPC: 4 (Simulation time: 00 hr 00 min 58 sec)
Warmup finished CPU 0 instructions: 25000001 cycles: 6250076 cumulative IPC: 4 (Simulation time: 00 hr 01 min 14 sec)
Warmup complete CPU 0 instructions: 25000001 cycles: 6250076 cumulative IPC: 4 (Simulation time: 00 hr 01 min 14 sec)
Heartbeat CPU 0 instructions: 30000001 cycles: 9528780 heartbeat IPC: 2.208 cumulative IPC: 1.525 (Simulation time: 00 hr 01 min 43 sec)
Heartbeat CPU 0 instructions: 40000002 cycles: 15944453 heartbeat IPC: 1.559 cumulative IPC: 1.547 (Simulation time: 00 hr 02 min 38 sec)
Heartbeat CPU 0 instructions: 50000000 cycles: 22438282 heartbeat IPC: 1.54 cumulative IPC: 1.544 (Simulation time: 00 hr 03 min 32 sec)
Simulation finished CPU 0 instructions: 25000002 cycles: 16188208 cumulative IPC: 1.544 (Simulation time: 00 hr 03 min 32 sec)
Simulation complete CPU 0 instructions: 25000002 cycles: 16188208 cumulative IPC: 1.544 (Simulation time: 00 hr 03 min 32 sec)

ChampSim completed all CPUs

=== Simulation ===
CPU 0 runs ./traces/623.xalancbmk_s-165B.champsimtrace.xz
Region of Interest Statistics

CPU 0 cumulative IPC: 1.544 instructions: 25000002 cycles: 16188208
CPU 0 Branch Prediction Accuracy: 96.52% MPKI: 9.703 Average ROB Occupancy at Mispredict: 51.33
Branch type MPKI
BRANCH_DIRECT_JUMP: 0
BRANCH_INDIRECT: 0
BRANCH_CONDITIONAL: 9.7
BRANCH_DIRECT_CALL: 0
BRANCH_INDIRECT_CALL: 0
BRANCH_RETURN: 0

LLC TOTAL        ACCESS:     516699 HIT:     417956 MISS:      98743
LLC LOAD         ACCESS:     233379 HIT:     188680 MISS:      44699
LLC RFO          ACCESS:         90 HIT:         43 MISS:         47
LLC PREFETCH     ACCESS:     282997 HIT:     229049 MISS:      53948
LLC WRITE        ACCESS:        201 HIT:        184 MISS:         17
LLC TRANSLATION  ACCESS:         32 HIT:          0 MISS:         32
LLC PREFETCH REQUESTED:          0 ISSUED:          0 USEFUL:          0 USELESS:          0
LLC AVERAGE MISS LATENCY: 207 cycles
cpu0_DTLB TOTAL        ACCESS:    6040255 HIT:    6006994 MISS:      33261
cpu0_DTLB LOAD         ACCESS:    6040255 HIT:    6006994 MISS:      33261
cpu0_DTLB RFO          ACCESS:          0 HIT:          0 MISS:          0
cpu0_DTLB PREFETCH     ACCESS:          0 HIT:          0 MISS:          0
cpu0_DTLB WRITE        ACCESS:          0 HIT:          0 MISS:          0
cpu0_DTLB TRANSLATION  ACCESS:          0 HIT:          0 MISS:          0
cpu0_DTLB PREFETCH REQUESTED:          0 ISSUED:          0 USEFUL:          0 USELESS:          0
cpu0_DTLB AVERAGE MISS LATENCY: 1.055 cycles
cpu0_ITLB TOTAL        ACCESS:          0 HIT:          0 MISS:          0
cpu0_ITLB LOAD         ACCESS:          0 HIT:          0 MISS:          0
cpu0_ITLB RFO          ACCESS:          0 HIT:          0 MISS:          0
cpu0_ITLB PREFETCH     ACCESS:          0 HIT:          0 MISS:          0
cpu0_ITLB WRITE        ACCESS:          0 HIT:          0 MISS:          0
cpu0_ITLB TRANSLATION  ACCESS:          0 HIT:          0 MISS:          0
cpu0_ITLB PREFETCH REQUESTED:          0 ISSUED:          0 USEFUL:          0 USELESS:          0
cpu0_ITLB AVERAGE MISS LATENCY: -nan cycles
cpu0_L1D TOTAL        ACCESS:   12034265 HIT:    9578308 MISS:    2455957
cpu0_L1D LOAD         ACCESS:    6766915 HIT:    5251102 MISS:    1515813
cpu0_L1D RFO          ACCESS:          0 HIT:          0 MISS:          0
cpu0_L1D PREFETCH     ACCESS:    4939049 HIT:    3999547 MISS:     939502
cpu0_L1D WRITE        ACCESS:     328269 HIT:     327659 MISS:        610
cpu0_L1D TRANSLATION  ACCESS:         32 HIT:          0 MISS:         32
cpu0_L1D PREFETCH REQUESTED:    6766927 ISSUED:    4939048 USEFUL:      82603 USELESS:      40757
cpu0_L1D AVERAGE MISS LATENCY: 7.531 cycles
cpu0_L1I TOTAL        ACCESS:          0 HIT:          0 MISS:          0
cpu0_L1I LOAD         ACCESS:          0 HIT:          0 MISS:          0
cpu0_L1I RFO          ACCESS:          0 HIT:          0 MISS:          0
cpu0_L1I PREFETCH     ACCESS:          0 HIT:          0 MISS:          0
cpu0_L1I WRITE        ACCESS:          0 HIT:          0 MISS:          0
cpu0_L1I TRANSLATION  ACCESS:          0 HIT:          0 MISS:          0
cpu0_L1I PREFETCH REQUESTED:          0 ISSUED:          0 USEFUL:          0 USELESS:          0
cpu0_L1I AVERAGE MISS LATENCY: -nan cycles
cpu0_L2C TOTAL        ACCESS:     830117 HIT:     304695 MISS:     525422
cpu0_L2C LOAD         ACCESS:     392828 HIT:     158419 MISS:     234409
cpu0_L2C RFO          ACCESS:        108 HIT:         18 MISS:         90
cpu0_L2C PREFETCH     ACCESS:     436949 HIT:     146058 MISS:     290891
cpu0_L2C WRITE        ACCESS:        200 HIT:        200 MISS:          0
cpu0_L2C TRANSLATION  ACCESS:         32 HIT:          0 MISS:         32
cpu0_L2C PREFETCH REQUESTED:     313588 ISSUED:     313588 USEFUL:     220071 USELESS:       2660
cpu0_L2C AVERAGE MISS LATENCY: 58.18 cycles
cpu0_STLB TOTAL        ACCESS:       8783 HIT:       8751 MISS:         32
cpu0_STLB LOAD         ACCESS:       8783 HIT:       8751 MISS:         32
cpu0_STLB RFO          ACCESS:          0 HIT:          0 MISS:          0
cpu0_STLB PREFETCH     ACCESS:          0 HIT:          0 MISS:          0
cpu0_STLB WRITE        ACCESS:          0 HIT:          0 MISS:          0
cpu0_STLB TRANSLATION  ACCESS:          0 HIT:          0 MISS:          0
cpu0_STLB PREFETCH REQUESTED:          0 ISSUED:          0 USEFUL:          0 USELESS:          0
cpu0_STLB AVERAGE MISS LATENCY: 649.4 cycles

DRAM Statistics

Channel 0 RQ ROW_BUFFER_HIT:      90768
  ROW_BUFFER_MISS:       7958
 AVG DBUS CONGESTED CYCLE: 3.914
WQ ROW_BUFFER_HIT: Channel 0 
  ROW_BUFFER_MISS:        106
  FULL:         13
