WARNING: physical memory size is smaller than virtual memory size.

*** ChampSim Multicore Out-of-Order Simulator ***
Warmup Instructions: 25000000
Simulation Instructions: 25000000
Number of CPUs: 1
Page size: 4096

Off-chip DRAM Size: 4 GiB Channels: 1 Width: 64-bit Data Race: 800 MT/s
Heartbeat CPU 0 instructions: 10000000 cycles: 2500125 heartbeat IPC: 4 cumulative IPC: 4 (Simulation time: 00 hr 00 min 30 sec)
Heartbeat CPU 0 instructions: 20000001 cycles: 5000145 heartbeat IPC: 4 cumulative IPC: 4 (Simulation time: 00 hr 01 min 05 sec)
Warmup finished CPU 0 instructions: 25000001 cycles: 6250146 cumulative IPC: 4 (Simulation time: 00 hr 01 min 23 sec)
Warmup complete CPU 0 instructions: 25000001 cycles: 6250146 cumulative IPC: 4 (Simulation time: 00 hr 01 min 23 sec)
Heartbeat CPU 0 instructions: 30000000 cycles: 14077615 heartbeat IPC: 1.102 cumulative IPC: 0.6388 (Simulation time: 00 hr 02 min 34 sec)
Heartbeat CPU 0 instructions: 40000002 cycles: 29565309 heartbeat IPC: 0.6457 cumulative IPC: 0.6434 (Simulation time: 00 hr 04 min 40 sec)
Heartbeat CPU 0 instructions: 50000000 cycles: 45068222 heartbeat IPC: 0.645 cumulative IPC: 0.644 (Simulation time: 00 hr 06 min 31 sec)
Simulation finished CPU 0 instructions: 25000003 cycles: 38818078 cumulative IPC: 0.644 (Simulation time: 00 hr 06 min 31 sec)
Simulation complete CPU 0 instructions: 25000003 cycles: 38818078 cumulative IPC: 0.644 (Simulation time: 00 hr 06 min 31 sec)

ChampSim completed all CPUs

=== Simulation ===
CPU 0 runs ./traces/649.fotonik3d_s-7084B.champsimtrace.xz
Region of Interest Statistics

CPU 0 cumulative IPC: 0.644 instructions: 25000003 cycles: 38818078
CPU 0 Branch Prediction Accuracy: 99.19% MPKI: 0.05616 Average ROB Occupancy at Mispredict: 352
Branch type MPKI
BRANCH_DIRECT_JUMP: 0
BRANCH_INDIRECT: 0
BRANCH_CONDITIONAL: 0.0562
BRANCH_DIRECT_CALL: 0
BRANCH_INDIRECT_CALL: 0
BRANCH_RETURN: 0

LLC TOTAL        ACCESS:     551307 HIT:     101442 MISS:     449865
LLC LOAD         ACCESS:      45619 HIT:         28 MISS:      45591
LLC RFO          ACCESS:          0 HIT:          0 MISS:          0
LLC PREFETCH     ACCESS:     375409 HIT:        108 MISS:     375301
LLC WRITE        ACCESS:     129795 HIT:     100921 MISS:      28874
LLC TRANSLATION  ACCESS:        484 HIT:        385 MISS:         99
LLC PREFETCH REQUESTED:          0 ISSUED:          0 USEFUL:          0 USELESS:          0
LLC AVERAGE MISS LATENCY: 864.9 cycles
cpu0_DTLB TOTAL        ACCESS:    6191776 HIT:    6166866 MISS:      24910
cpu0_DTLB LOAD         ACCESS:    6191776 HIT:    6166866 MISS:      24910
cpu0_DTLB RFO          ACCESS:          0 HIT:          0 MISS:          0
cpu0_DTLB PREFETCH     ACCESS:          0 HIT:          0 MISS:          0
cpu0_DTLB WRITE        ACCESS:          0 HIT:          0 MISS:          0
cpu0_DTLB TRANSLATION  ACCESS:          0 HIT:          0 MISS:          0
cpu0_DTLB PREFETCH REQUESTED:          0 ISSUED:          0 USEFUL:          0 USELESS:          0
cpu0_DTLB AVERAGE MISS LATENCY: 41.36 cycles
cpu0_ITLB TOTAL        ACCESS:          0 HIT:          0 MISS:          0
cpu0_ITLB LOAD         ACCESS:          0 HIT:          0 MISS:          0
cpu0_ITLB RFO          ACCESS:          0 HIT:          0 MISS:          0
cpu0_ITLB PREFETCH     ACCESS:          0 HIT:          0 MISS:          0
cpu0_ITLB WRITE        ACCESS:          0 HIT:          0 MISS:          0
cpu0_ITLB TRANSLATION  ACCESS:          0 HIT:          0 MISS:          0
cpu0_ITLB PREFETCH REQUESTED:          0 ISSUED:          0 USEFUL:          0 USELESS:          0
cpu0_ITLB AVERAGE MISS LATENCY: -nan cycles
cpu0_L1D TOTAL        ACCESS:   10774296 HIT:    8976923 MISS:    1797373
cpu0_L1D LOAD         ACCESS:    6523805 HIT:    5788555 MISS:     735250
cpu0_L1D RFO          ACCESS:          0 HIT:          0 MISS:          0
cpu0_L1D PREFETCH     ACCESS:    3015440 HIT:    1960130 MISS:    1055310
cpu0_L1D WRITE        ACCESS:    1228216 HIT:    1228213 MISS:          3
cpu0_L1D TRANSLATION  ACCESS:       6835 HIT:         25 MISS:       6810
cpu0_L1D PREFETCH REQUESTED:    6893564 ISSUED:    3015440 USEFUL:     338139 USELESS:      13736
cpu0_L1D AVERAGE MISS LATENCY: 122.8 cycles
cpu0_L1I TOTAL        ACCESS:          0 HIT:          0 MISS:          0
cpu0_L1I LOAD         ACCESS:          0 HIT:          0 MISS:          0
cpu0_L1I RFO          ACCESS:          0 HIT:          0 MISS:          0
cpu0_L1I PREFETCH     ACCESS:          0 HIT:          0 MISS:          0
cpu0_L1I WRITE        ACCESS:          0 HIT:          0 MISS:          0
cpu0_L1I TRANSLATION  ACCESS:          0 HIT:          0 MISS:          0
cpu0_L1I PREFETCH REQUESTED:          0 ISSUED:          0 USEFUL:          0 USELESS:          0
cpu0_L1I AVERAGE MISS LATENCY: -nan cycles
cpu0_L2C TOTAL        ACCESS:     685464 HIT:     245608 MISS:     439856
cpu0_L2C LOAD         ACCESS:      85511 HIT:      39171 MISS:      46340
cpu0_L2C RFO          ACCESS:          3 HIT:          3 MISS:          0
cpu0_L2C PREFETCH     ACCESS:     462556 HIT:      69578 MISS:     392978
cpu0_L2C WRITE        ACCESS:     130584 HIT:     130530 MISS:         54
cpu0_L2C TRANSLATION  ACCESS:       6810 HIT:       6326 MISS:        484
cpu0_L2C PREFETCH REQUESTED:     110681 ISSUED:     110681 USEFUL:      39757 USELESS:       3320
cpu0_L2C AVERAGE MISS LATENCY: 903.2 cycles
cpu0_STLB TOTAL        ACCESS:      13907 HIT:       7084 MISS:       6823
cpu0_STLB LOAD         ACCESS:      13907 HIT:       7084 MISS:       6823
cpu0_STLB RFO          ACCESS:          0 HIT:          0 MISS:          0
cpu0_STLB PREFETCH     ACCESS:          0 HIT:          0 MISS:          0
cpu0_STLB WRITE        ACCESS:          0 HIT:          0 MISS:          0
cpu0_STLB TRANSLATION  ACCESS:          0 HIT:          0 MISS:          0
cpu0_STLB PREFETCH REQUESTED:          0 ISSUED:          0 USEFUL:          0 USELESS:          0
cpu0_STLB AVERAGE MISS LATENCY: 198.1 cycles

DRAM Statistics

Channel 0 RQ ROW_BUFFER_HIT:     182652
  ROW_BUFFER_MISS:     238318
 AVG DBUS CONGESTED CYCLE: 3.876
WQ ROW_BUFFER_HIT: Channel 0 
  ROW_BUFFER_MISS:       2048
  FULL:     124484
