WARNING: physical memory size is smaller than virtual memory size.

*** ChampSim Multicore Out-of-Order Simulator ***
Warmup Instructions: 25000000
Simulation Instructions: 25000000
Number of CPUs: 1
Page size: 4096

Off-chip DRAM Size: 4 GiB Channels: 1 Width: 64-bit Data Race: 800 MT/s
Heartbeat CPU 0 instructions: 10000000 cycles: 2500349 heartbeat IPC: 3.999 cumulative IPC: 3.999 (Simulation time: 00 hr 00 min 28 sec)
Heartbeat CPU 0 instructions: 20000000 cycles: 5000349 heartbeat IPC: 4 cumulative IPC: 4 (Simulation time: 00 hr 01 min 01 sec)
Warmup finished CPU 0 instructions: 25000000 cycles: 6250350 cumulative IPC: 4 (Simulation time: 00 hr 01 min 20 sec)
Warmup complete CPU 0 instructions: 25000000 cycles: 6250350 cumulative IPC: 4 (Simulation time: 00 hr 01 min 20 sec)
Heartbeat CPU 0 instructions: 30000000 cycles: 21060631 heartbeat IPC: 0.6227 cumulative IPC: 0.3376 (Simulation time: 00 hr 03 min 26 sec)
Heartbeat CPU 0 instructions: 40000003 cycles: 49511989 heartbeat IPC: 0.3515 cumulative IPC: 0.3467 (Simulation time: 00 hr 06 min 38 sec)
Heartbeat CPU 0 instructions: 50000000 cycles: 68766726 heartbeat IPC: 0.5194 cumulative IPC: 0.3999 (Simulation time: 00 hr 08 min 04 sec)
Simulation finished CPU 0 instructions: 25000000 cycles: 62516377 cumulative IPC: 0.3999 (Simulation time: 00 hr 08 min 04 sec)
Simulation complete CPU 0 instructions: 25000000 cycles: 62516377 cumulative IPC: 0.3999 (Simulation time: 00 hr 08 min 04 sec)

ChampSim completed all CPUs

=== Simulation ===
CPU 0 runs ./traces/654.roms_s-523B.champsimtrace.xz
Region of Interest Statistics

CPU 0 cumulative IPC: 0.3999 instructions: 25000000 cycles: 62516377
CPU 0 Branch Prediction Accuracy: 99.85% MPKI: 0.09976 Average ROB Occupancy at Mispredict: 350.4
Branch type MPKI
BRANCH_DIRECT_JUMP: 4e-05
BRANCH_INDIRECT: 0
BRANCH_CONDITIONAL: 0.0997
BRANCH_DIRECT_CALL: 0
BRANCH_INDIRECT_CALL: 0
BRANCH_RETURN: 0

LLC TOTAL        ACCESS:     895767 HIT:     189958 MISS:     705809
LLC LOAD         ACCESS:     118969 HIT:        408 MISS:     118561
LLC RFO          ACCESS:     155877 HIT:          0 MISS:     155877
LLC PREFETCH     ACCESS:     393947 HIT:        946 MISS:     393001
LLC WRITE        ACCESS:     222655 HIT:     188107 MISS:      34548
LLC TRANSLATION  ACCESS:       4319 HIT:        497 MISS:       3822
LLC PREFETCH REQUESTED:          0 ISSUED:          0 USEFUL:          0 USELESS:          0
LLC AVERAGE MISS LATENCY: 1015 cycles
cpu0_DTLB TOTAL        ACCESS:    6781925 HIT:    6690674 MISS:      91251
cpu0_DTLB LOAD         ACCESS:    6781925 HIT:    6690674 MISS:      91251
cpu0_DTLB RFO          ACCESS:          0 HIT:          0 MISS:          0
cpu0_DTLB PREFETCH     ACCESS:          0 HIT:          0 MISS:          0
cpu0_DTLB WRITE        ACCESS:          0 HIT:          0 MISS:          0
cpu0_DTLB TRANSLATION  ACCESS:          0 HIT:          0 MISS:          0
cpu0_DTLB PREFETCH REQUESTED:          0 ISSUED:          0 USEFUL:          0 USELESS:          0
cpu0_DTLB AVERAGE MISS LATENCY: 39.65 cycles
cpu0_ITLB TOTAL        ACCESS:         32 HIT:         32 MISS:          0
cpu0_ITLB LOAD         ACCESS:         32 HIT:         32 MISS:          0
cpu0_ITLB RFO          ACCESS:          0 HIT:          0 MISS:          0
cpu0_ITLB PREFETCH     ACCESS:          0 HIT:          0 MISS:          0
cpu0_ITLB WRITE        ACCESS:          0 HIT:          0 MISS:          0
cpu0_ITLB TRANSLATION  ACCESS:          0 HIT:          0 MISS:          0
cpu0_ITLB PREFETCH REQUESTED:          0 ISSUED:          0 USEFUL:          0 USELESS:          0
cpu0_ITLB AVERAGE MISS LATENCY: -nan cycles
cpu0_L1D TOTAL        ACCESS:   11937170 HIT:    5044817 MISS:    6892353
cpu0_L1D LOAD         ACCESS:    7288686 HIT:    3527593 MISS:    3761093
cpu0_L1D RFO          ACCESS:          0 HIT:          0 MISS:          0
cpu0_L1D PREFETCH     ACCESS:    2863375 HIT:     941088 MISS:    1922287
cpu0_L1D WRITE        ACCESS:    1769188 HIT:     573295 MISS:    1195893
cpu0_L1D TRANSLATION  ACCESS:      15921 HIT:       2841 MISS:      13080
cpu0_L1D PREFETCH REQUESTED:    7905390 ISSUED:    2863375 USEFUL:     392226 USELESS:      10961
cpu0_L1D AVERAGE MISS LATENCY: 61.63 cycles
cpu0_L1I TOTAL        ACCESS:         36 HIT:          6 MISS:         30
cpu0_L1I LOAD         ACCESS:         36 HIT:          6 MISS:         30
cpu0_L1I RFO          ACCESS:          0 HIT:          0 MISS:          0
cpu0_L1I PREFETCH     ACCESS:          0 HIT:          0 MISS:          0
cpu0_L1I WRITE        ACCESS:          0 HIT:          0 MISS:          0
cpu0_L1I TRANSLATION  ACCESS:          0 HIT:          0 MISS:          0
cpu0_L1I PREFETCH REQUESTED:          0 ISSUED:          0 USEFUL:          0 USELESS:          0
cpu0_L1I AVERAGE MISS LATENCY: 798 cycles
cpu0_L2C TOTAL        ACCESS:     998728 HIT:     282752 MISS:     715976
cpu0_L2C LOAD         ACCESS:     141407 HIT:      16498 MISS:     124909
cpu0_L2C RFO          ACCESS:     155878 HIT:          1 MISS:     155877
cpu0_L2C PREFETCH     ACCESS:     464647 HIT:      33784 MISS:     430863
cpu0_L2C WRITE        ACCESS:     223717 HIT:     223709 MISS:          8
cpu0_L2C TRANSLATION  ACCESS:      13079 HIT:       8760 MISS:       4319
cpu0_L2C PREFETCH REQUESTED:      61461 ISSUED:      61461 USEFUL:      26516 USELESS:      16349
cpu0_L2C AVERAGE MISS LATENCY: 1017 cycles
cpu0_STLB TOTAL        ACCESS:      15891 HIT:         13 MISS:      15878
cpu0_STLB LOAD         ACCESS:      15891 HIT:         13 MISS:      15878
cpu0_STLB RFO          ACCESS:          0 HIT:          0 MISS:          0
cpu0_STLB PREFETCH     ACCESS:          0 HIT:          0 MISS:          0
cpu0_STLB WRITE        ACCESS:          0 HIT:          0 MISS:          0
cpu0_STLB TRANSLATION  ACCESS:          0 HIT:          0 MISS:          0
cpu0_STLB PREFETCH REQUESTED:          0 ISSUED:          0 USEFUL:          0 USELESS:          0
cpu0_STLB AVERAGE MISS LATENCY: 441.9 cycles

DRAM Statistics

Channel 0 RQ ROW_BUFFER_HIT:     168468
  ROW_BUFFER_MISS:     502109
 AVG DBUS CONGESTED CYCLE: 3.924
WQ ROW_BUFFER_HIT: Channel 0 
  ROW_BUFFER_MISS:       4104
  FULL:     224194
