WARNING: physical memory size is smaller than virtual memory size.

*** ChampSim Multicore Out-of-Order Simulator ***
Warmup Instructions: 25000000
Simulation Instructions: 25000000
Number of CPUs: 1
Page size: 4096

Off-chip DRAM Size: 4 GiB Channels: 1 Width: 64-bit Data Race: 800 MT/s
Heartbeat CPU 0 instructions: 10000001 cycles: 2500087 heartbeat IPC: 4 cumulative IPC: 4 (Simulation time: 00 hr 00 min 27 sec)
Heartbeat CPU 0 instructions: 20000003 cycles: 5000107 heartbeat IPC: 4 cumulative IPC: 4 (Simulation time: 00 hr 00 min 53 sec)
Warmup finished CPU 0 instructions: 25000003 cycles: 6250108 cumulative IPC: 4 (Simulation time: 00 hr 01 min 06 sec)
Warmup complete CPU 0 instructions: 25000003 cycles: 6250108 cumulative IPC: 4 (Simulation time: 00 hr 01 min 06 sec)
Heartbeat CPU 0 instructions: 30000000 cycles: 10997193 heartbeat IPC: 1.667 cumulative IPC: 1.053 (Simulation time: 00 hr 01 min 35 sec)
Heartbeat CPU 0 instructions: 40000001 cycles: 21413048 heartbeat IPC: 0.9601 cumulative IPC: 0.9893 (Simulation time: 00 hr 02 min 35 sec)
Heartbeat CPU 0 instructions: 50000002 cycles: 33793942 heartbeat IPC: 0.8077 cumulative IPC: 0.9076 (Simulation time: 00 hr 03 min 44 sec)
Simulation finished CPU 0 instructions: 25000003 cycles: 27543836 cumulative IPC: 0.9076 (Simulation time: 00 hr 03 min 44 sec)
Simulation complete CPU 0 instructions: 25000003 cycles: 27543836 cumulative IPC: 0.9076 (Simulation time: 00 hr 03 min 44 sec)

ChampSim completed all CPUs

=== Simulation ===
CPU 0 runs ./traces/602.gcc_s-734B.champsimtrace.xz
Region of Interest Statistics

CPU 0 cumulative IPC: 0.9076 instructions: 25000003 cycles: 27543836
CPU 0 Branch Prediction Accuracy: 89.42% MPKI: 25.09 Average ROB Occupancy at Mispredict: 17.5
Branch type MPKI
BRANCH_DIRECT_JUMP: 0.0794
BRANCH_INDIRECT: 0
BRANCH_CONDITIONAL: 25
BRANCH_DIRECT_CALL: 0.0548
BRANCH_INDIRECT_CALL: 0
BRANCH_RETURN: 0

LLC TOTAL        ACCESS:     211551 HIT:       1384 MISS:     210167
LLC LOAD         ACCESS:       6023 HIT:         89 MISS:       5934
LLC RFO          ACCESS:          1 HIT:          0 MISS:          1
LLC PREFETCH     ACCESS:     201646 HIT:        191 MISS:     201455
LLC WRITE        ACCESS:       1294 HIT:        743 MISS:        551
LLC TRANSLATION  ACCESS:       2587 HIT:        361 MISS:       2226
LLC PREFETCH REQUESTED:          0 ISSUED:          0 USEFUL:          0 USELESS:          0
LLC AVERAGE MISS LATENCY: 150.5 cycles
cpu0_DTLB TOTAL        ACCESS:    6245134 HIT:    6232553 MISS:      12581
cpu0_DTLB LOAD         ACCESS:    6245134 HIT:    6232553 MISS:      12581
cpu0_DTLB RFO          ACCESS:          0 HIT:          0 MISS:          0
cpu0_DTLB PREFETCH     ACCESS:          0 HIT:          0 MISS:          0
cpu0_DTLB WRITE        ACCESS:          0 HIT:          0 MISS:          0
cpu0_DTLB TRANSLATION  ACCESS:          0 HIT:          0 MISS:          0
cpu0_DTLB PREFETCH REQUESTED:          0 ISSUED:          0 USEFUL:          0 USELESS:          0
cpu0_DTLB AVERAGE MISS LATENCY: 73.44 cycles
cpu0_ITLB TOTAL        ACCESS:          4 HIT:          4 MISS:          0
cpu0_ITLB LOAD         ACCESS:          4 HIT:          4 MISS:          0
cpu0_ITLB RFO          ACCESS:          0 HIT:          0 MISS:          0
cpu0_ITLB PREFETCH     ACCESS:          0 HIT:          0 MISS:          0
cpu0_ITLB WRITE        ACCESS:          0 HIT:          0 MISS:          0
cpu0_ITLB TRANSLATION  ACCESS:          0 HIT:          0 MISS:          0
cpu0_ITLB PREFETCH REQUESTED:          0 ISSUED:          0 USEFUL:          0 USELESS:          0
cpu0_ITLB AVERAGE MISS LATENCY: -nan cycles
cpu0_L1D TOTAL        ACCESS:   13797752 HIT:   11701404 MISS:    2096348
cpu0_L1D LOAD         ACCESS:    5605917 HIT:    5325617 MISS:     280300
cpu0_L1D RFO          ACCESS:          0 HIT:          0 MISS:          0
cpu0_L1D PREFETCH     ACCESS:    5600438 HIT:    3787221 MISS:    1813217
cpu0_L1D WRITE        ACCESS:    2585790 HIT:    2585755 MISS:         35
cpu0_L1D TRANSLATION  ACCESS:       5607 HIT:       2811 MISS:       2796
cpu0_L1D PREFETCH REQUESTED:    5608958 ISSUED:    5600439 USEFUL:     388249 USELESS:      12562
cpu0_L1D AVERAGE MISS LATENCY: 11.01 cycles
cpu0_L1I TOTAL        ACCESS:          4 HIT:          4 MISS:          0
cpu0_L1I LOAD         ACCESS:          4 HIT:          4 MISS:          0
cpu0_L1I RFO          ACCESS:          0 HIT:          0 MISS:          0
cpu0_L1I PREFETCH     ACCESS:          0 HIT:          0 MISS:          0
cpu0_L1I WRITE        ACCESS:          0 HIT:          0 MISS:          0
cpu0_L1I TRANSLATION  ACCESS:          0 HIT:          0 MISS:          0
cpu0_L1I PREFETCH REQUESTED:          0 ISSUED:          0 USEFUL:          0 USELESS:          0
cpu0_L1I AVERAGE MISS LATENCY: -nan cycles
cpu0_L2C TOTAL        ACCESS:     423341 HIT:     212733 MISS:     210608
cpu0_L2C LOAD         ACCESS:      15620 HIT:       9561 MISS:       6059
cpu0_L2C RFO          ACCESS:         10 HIT:          9 MISS:          1
cpu0_L2C PREFETCH     ACCESS:     402033 HIT:     200076 MISS:     201957
cpu0_L2C WRITE        ACCESS:       2883 HIT:       2879 MISS:          4
cpu0_L2C TRANSLATION  ACCESS:       2795 HIT:        208 MISS:       2587
cpu0_L2C PREFETCH REQUESTED:       1214 ISSUED:       1214 USEFUL:        335 USELESS:        415
cpu0_L2C AVERAGE MISS LATENCY: 171.1 cycles
cpu0_STLB TOTAL        ACCESS:       7141 HIT:       1951 MISS:       5190
cpu0_STLB LOAD         ACCESS:       7141 HIT:       1951 MISS:       5190
cpu0_STLB RFO          ACCESS:          0 HIT:          0 MISS:          0
cpu0_STLB PREFETCH     ACCESS:          0 HIT:          0 MISS:          0
cpu0_STLB WRITE        ACCESS:          0 HIT:          0 MISS:          0
cpu0_STLB TRANSLATION  ACCESS:          0 HIT:          0 MISS:          0
cpu0_STLB PREFETCH REQUESTED:          0 ISSUED:          0 USEFUL:          0 USELESS:          0
cpu0_STLB AVERAGE MISS LATENCY: 171.6 cycles

DRAM Statistics

Channel 0 RQ ROW_BUFFER_HIT:     127208
  ROW_BUFFER_MISS:      82363
 AVG DBUS CONGESTED CYCLE: 3.585
WQ ROW_BUFFER_HIT: Channel 0 
  ROW_BUFFER_MISS:        568
  FULL:        772
