WARNING: physical memory size is smaller than virtual memory size.

*** ChampSim Multicore Out-of-Order Simulator ***
Warmup Instructions: 25000000
Simulation Instructions: 25000000
Number of CPUs: 1
Page size: 4096

Off-chip DRAM Size: 4 GiB Channels: 1 Width: 64-bit Data Race: 800 MT/s
Heartbeat CPU 0 instructions: 10000001 cycles: 2500075 heartbeat IPC: 4 cumulative IPC: 4 (Simulation time: 00 hr 00 min 31 sec)
Heartbeat CPU 0 instructions: 20000001 cycles: 5000075 heartbeat IPC: 4 cumulative IPC: 4 (Simulation time: 00 hr 01 min 02 sec)
Warmup finished CPU 0 instructions: 25000001 cycles: 6250076 cumulative IPC: 4 (Simulation time: 00 hr 01 min 17 sec)
Warmup complete CPU 0 instructions: 25000001 cycles: 6250076 cumulative IPC: 4 (Simulation time: 00 hr 01 min 17 sec)
Heartbeat CPU 0 instructions: 30000001 cycles: 12892575 heartbeat IPC: 1.267 cumulative IPC: 0.7527 (Simulation time: 00 hr 01 min 55 sec)
Heartbeat CPU 0 instructions: 40000000 cycles: 26152166 heartbeat IPC: 0.7542 cumulative IPC: 0.7537 (Simulation time: 00 hr 03 min 12 sec)
Heartbeat CPU 0 instructions: 50000000 cycles: 39348999 heartbeat IPC: 0.7578 cumulative IPC: 0.7553 (Simulation time: 00 hr 04 min 31 sec)
Simulation finished CPU 0 instructions: 25000000 cycles: 33098925 cumulative IPC: 0.7553 (Simulation time: 00 hr 04 min 31 sec)
Simulation complete CPU 0 instructions: 25000000 cycles: 33098925 cumulative IPC: 0.7553 (Simulation time: 00 hr 04 min 31 sec)

ChampSim completed all CPUs

=== Simulation ===
CPU 0 runs ./traces/602.gcc_s-1850B.champsimtrace.xz
Region of Interest Statistics

CPU 0 cumulative IPC: 0.7553 instructions: 25000000 cycles: 33098925
CPU 0 Branch Prediction Accuracy: 87.84% MPKI: 31.17 Average ROB Occupancy at Mispredict: 12.83
Branch type MPKI
BRANCH_DIRECT_JUMP: 0.0119
BRANCH_INDIRECT: 0
BRANCH_CONDITIONAL: 31.2
BRANCH_DIRECT_CALL: 0
BRANCH_INDIRECT_CALL: 0
BRANCH_RETURN: 0

LLC TOTAL        ACCESS:     479383 HIT:       3327 MISS:     476056
LLC LOAD         ACCESS:     100392 HIT:        273 MISS:     100119
LLC RFO          ACCESS:          1 HIT:          0 MISS:          1
LLC PREFETCH     ACCESS:     377201 HIT:       2164 MISS:     375037
LLC WRITE        ACCESS:        623 HIT:        568 MISS:         55
LLC TRANSLATION  ACCESS:       1166 HIT:        322 MISS:        844
LLC PREFETCH REQUESTED:          0 ISSUED:          0 USEFUL:          0 USELESS:          0
LLC AVERAGE MISS LATENCY: 178.5 cycles
cpu0_DTLB TOTAL        ACCESS:    6070734 HIT:    6038843 MISS:      31891
cpu0_DTLB LOAD         ACCESS:    6070734 HIT:    6038843 MISS:      31891
cpu0_DTLB RFO          ACCESS:          0 HIT:          0 MISS:          0
cpu0_DTLB PREFETCH     ACCESS:          0 HIT:          0 MISS:          0
cpu0_DTLB WRITE        ACCESS:          0 HIT:          0 MISS:          0
cpu0_DTLB TRANSLATION  ACCESS:          0 HIT:          0 MISS:          0
cpu0_DTLB PREFETCH REQUESTED:          0 ISSUED:          0 USEFUL:          0 USELESS:          0
cpu0_DTLB AVERAGE MISS LATENCY: 60.92 cycles
cpu0_ITLB TOTAL        ACCESS:          0 HIT:          0 MISS:          0
cpu0_ITLB LOAD         ACCESS:          0 HIT:          0 MISS:          0
cpu0_ITLB RFO          ACCESS:          0 HIT:          0 MISS:          0
cpu0_ITLB PREFETCH     ACCESS:          0 HIT:          0 MISS:          0
cpu0_ITLB WRITE        ACCESS:          0 HIT:          0 MISS:          0
cpu0_ITLB TRANSLATION  ACCESS:          0 HIT:          0 MISS:          0
cpu0_ITLB PREFETCH REQUESTED:          0 ISSUED:          0 USEFUL:          0 USELESS:          0
cpu0_ITLB AVERAGE MISS LATENCY: -nan cycles
cpu0_L1D TOTAL        ACCESS:   13458394 HIT:   10784772 MISS:    2673622
cpu0_L1D LOAD         ACCESS:    5715839 HIT:    4754654 MISS:     961185
cpu0_L1D RFO          ACCESS:          0 HIT:          0 MISS:          0
cpu0_L1D PREFETCH     ACCESS:    5468239 HIT:    3757238 MISS:    1711001
cpu0_L1D WRITE        ACCESS:    2266494 HIT:    2266491 MISS:          3
cpu0_L1D TRANSLATION  ACCESS:       7822 HIT:       6389 MISS:       1433
cpu0_L1D PREFETCH REQUESTED:    6135417 ISSUED:    5468243 USEFUL:     354198 USELESS:      44870
cpu0_L1D AVERAGE MISS LATENCY: 21.62 cycles
cpu0_L1I TOTAL        ACCESS:          0 HIT:          0 MISS:          0
cpu0_L1I LOAD         ACCESS:          0 HIT:          0 MISS:          0
cpu0_L1I RFO          ACCESS:          0 HIT:          0 MISS:          0
cpu0_L1I PREFETCH     ACCESS:          0 HIT:          0 MISS:          0
cpu0_L1I WRITE        ACCESS:          0 HIT:          0 MISS:          0
cpu0_L1I TRANSLATION  ACCESS:          0 HIT:          0 MISS:          0
cpu0_L1I PREFETCH REQUESTED:          0 ISSUED:          0 USEFUL:          0 USELESS:          0
cpu0_L1I AVERAGE MISS LATENCY: -nan cycles
cpu0_L2C TOTAL        ACCESS:    1287701 HIT:     445938 MISS:     841763
cpu0_L2C LOAD         ACCESS:     324213 HIT:     190905 MISS:     133308
cpu0_L2C RFO          ACCESS:          1 HIT:          0 MISS:          1
cpu0_L2C PREFETCH     ACCESS:     961248 HIT:     253960 MISS:     707288
cpu0_L2C WRITE        ACCESS:        806 HIT:        806 MISS:          0
cpu0_L2C TRANSLATION  ACCESS:       1433 HIT:        267 MISS:       1166
cpu0_L2C PREFETCH REQUESTED:     562179 ISSUED:     562179 USEFUL:     144638 USELESS:      67493
cpu0_L2C AVERAGE MISS LATENCY: 106.3 cycles
cpu0_STLB TOTAL        ACCESS:       8099 HIT:        366 MISS:       7733
cpu0_STLB LOAD         ACCESS:       8099 HIT:        366 MISS:       7733
cpu0_STLB RFO          ACCESS:          0 HIT:          0 MISS:          0
cpu0_STLB PREFETCH     ACCESS:          0 HIT:          0 MISS:          0
cpu0_STLB WRITE        ACCESS:          0 HIT:          0 MISS:          0
cpu0_STLB TRANSLATION  ACCESS:          0 HIT:          0 MISS:          0
cpu0_STLB PREFETCH REQUESTED:          0 ISSUED:          0 USEFUL:          0 USELESS:          0
cpu0_STLB AVERAGE MISS LATENCY: 248.3 cycles

DRAM Statistics

Channel 0 RQ ROW_BUFFER_HIT:     420242
  ROW_BUFFER_MISS:      27639
 AVG DBUS CONGESTED CYCLE: 3.89
WQ ROW_BUFFER_HIT: Channel 0 
  ROW_BUFFER_MISS:        338
  FULL:        274
