WARNING: physical memory size is smaller than virtual memory size.

*** ChampSim Multicore Out-of-Order Simulator ***
Warmup Instructions: 25000000
Simulation Instructions: 25000000
Number of CPUs: 1
Page size: 4096

Off-chip DRAM Size: 4 GiB Channels: 1 Width: 64-bit Data Race: 800 MT/s
Heartbeat CPU 0 instructions: 10000003 cycles: 2500157 heartbeat IPC: 4 cumulative IPC: 4 (Simulation time: 00 hr 00 min 32 sec)
Heartbeat CPU 0 instructions: 20000003 cycles: 5000157 heartbeat IPC: 4 cumulative IPC: 4 (Simulation time: 00 hr 01 min 06 sec)
Warmup finished CPU 0 instructions: 25000003 cycles: 6250158 cumulative IPC: 4 (Simulation time: 00 hr 01 min 22 sec)
Warmup complete CPU 0 instructions: 25000003 cycles: 6250158 cumulative IPC: 4 (Simulation time: 00 hr 01 min 22 sec)
Heartbeat CPU 0 instructions: 30000003 cycles: 14193584 heartbeat IPC: 1.088 cumulative IPC: 0.6295 (Simulation time: 00 hr 02 min 27 sec)
Heartbeat CPU 0 instructions: 40000000 cycles: 29845515 heartbeat IPC: 0.6389 cumulative IPC: 0.6357 (Simulation time: 00 hr 04 min 31 sec)
Heartbeat CPU 0 instructions: 50000000 cycles: 45450532 heartbeat IPC: 0.6408 cumulative IPC: 0.6377 (Simulation time: 00 hr 06 min 28 sec)
Simulation finished CPU 0 instructions: 25000001 cycles: 39200376 cumulative IPC: 0.6377 (Simulation time: 00 hr 06 min 28 sec)
Simulation complete CPU 0 instructions: 25000001 cycles: 39200376 cumulative IPC: 0.6377 (Simulation time: 00 hr 06 min 28 sec)

ChampSim completed all CPUs

=== Simulation ===
CPU 0 runs ./traces/603.bwaves_s-1740B.champsimtrace.xz
Region of Interest Statistics

CPU 0 cumulative IPC: 0.6377 instructions: 25000001 cycles: 39200376
CPU 0 Branch Prediction Accuracy: 81.23% MPKI: 4.685 Average ROB Occupancy at Mispredict: 300.7
Branch type MPKI
BRANCH_DIRECT_JUMP: 0
BRANCH_INDIRECT: 0
BRANCH_CONDITIONAL: 4.68
BRANCH_DIRECT_CALL: 0
BRANCH_INDIRECT_CALL: 0
BRANCH_RETURN: 0

LLC TOTAL        ACCESS:     503192 HIT:      24188 MISS:     479004
LLC LOAD         ACCESS:     236031 HIT:      10429 MISS:     225602
LLC RFO          ACCESS:      12181 HIT:          0 MISS:      12181
LLC PREFETCH     ACCESS:     242442 HIT:       1680 MISS:     240762
LLC WRITE        ACCESS:      12264 HIT:      11846 MISS:        418
LLC TRANSLATION  ACCESS:        274 HIT:        233 MISS:         41
LLC PREFETCH REQUESTED:          0 ISSUED:          0 USEFUL:          0 USELESS:          0
LLC AVERAGE MISS LATENCY: 1032 cycles
cpu0_DTLB TOTAL        ACCESS:    6669268 HIT:    6625317 MISS:      43951
cpu0_DTLB LOAD         ACCESS:    6669268 HIT:    6625317 MISS:      43951
cpu0_DTLB RFO          ACCESS:          0 HIT:          0 MISS:          0
cpu0_DTLB PREFETCH     ACCESS:          0 HIT:          0 MISS:          0
cpu0_DTLB WRITE        ACCESS:          0 HIT:          0 MISS:          0
cpu0_DTLB TRANSLATION  ACCESS:          0 HIT:          0 MISS:          0
cpu0_DTLB PREFETCH REQUESTED:          0 ISSUED:          0 USEFUL:          0 USELESS:          0
cpu0_DTLB AVERAGE MISS LATENCY: 33.74 cycles
cpu0_ITLB TOTAL        ACCESS:          0 HIT:          0 MISS:          0
cpu0_ITLB LOAD         ACCESS:          0 HIT:          0 MISS:          0
cpu0_ITLB RFO          ACCESS:          0 HIT:          0 MISS:          0
cpu0_ITLB PREFETCH     ACCESS:          0 HIT:          0 MISS:          0
cpu0_ITLB WRITE        ACCESS:          0 HIT:          0 MISS:          0
cpu0_ITLB TRANSLATION  ACCESS:          0 HIT:          0 MISS:          0
cpu0_ITLB PREFETCH REQUESTED:          0 ISSUED:          0 USEFUL:          0 USELESS:          0
cpu0_ITLB AVERAGE MISS LATENCY: -nan cycles
cpu0_L1D TOTAL        ACCESS:    9586794 HIT:    8363133 MISS:    1223661
cpu0_L1D LOAD         ACCESS:    6383868 HIT:    5629403 MISS:     754465
cpu0_L1D RFO          ACCESS:          0 HIT:          0 MISS:          0
cpu0_L1D PREFETCH     ACCESS:    1787133 HIT:    1388280 MISS:     398853
cpu0_L1D WRITE        ACCESS:    1408357 HIT:    1345287 MISS:      63070
cpu0_L1D TRANSLATION  ACCESS:       7436 HIT:        163 MISS:       7273
cpu0_L1D PREFETCH REQUESTED:    9439026 ISSUED:    1787133 USEFUL:     191673 USELESS:       6086
cpu0_L1D AVERAGE MISS LATENCY: 228.1 cycles
cpu0_L1I TOTAL        ACCESS:          0 HIT:          0 MISS:          0
cpu0_L1I LOAD         ACCESS:          0 HIT:          0 MISS:          0
cpu0_L1I RFO          ACCESS:          0 HIT:          0 MISS:          0
cpu0_L1I PREFETCH     ACCESS:          0 HIT:          0 MISS:          0
cpu0_L1I WRITE        ACCESS:          0 HIT:          0 MISS:          0
cpu0_L1I TRANSLATION  ACCESS:          0 HIT:          0 MISS:          0
cpu0_L1I PREFETCH REQUESTED:          0 ISSUED:          0 USEFUL:          0 USELESS:          0
cpu0_L1I AVERAGE MISS LATENCY: -nan cycles
cpu0_L2C TOTAL        ACCESS:     694927 HIT:     112593 MISS:     582334
cpu0_L2C LOAD         ACCESS:     311739 HIT:      47564 MISS:     264175
cpu0_L2C RFO          ACCESS:      14874 HIT:       2693 MISS:      12181
cpu0_L2C PREFETCH     ACCESS:     344782 HIT:      39170 MISS:     305612
cpu0_L2C WRITE        ACCESS:      16259 HIT:      16167 MISS:         92
cpu0_L2C TRANSLATION  ACCESS:       7273 HIT:       6999 MISS:        274
cpu0_L2C PREFETCH REQUESTED:     147049 ISSUED:     147049 USEFUL:      62602 USELESS:      11675
cpu0_L2C AVERAGE MISS LATENCY: 818.4 cycles
cpu0_STLB TOTAL        ACCESS:      30819 HIT:      23395 MISS:       7424
cpu0_STLB LOAD         ACCESS:      30819 HIT:      23395 MISS:       7424
cpu0_STLB RFO          ACCESS:          0 HIT:          0 MISS:          0
cpu0_STLB PREFETCH     ACCESS:          0 HIT:          0 MISS:          0
cpu0_STLB WRITE        ACCESS:          0 HIT:          0 MISS:          0
cpu0_STLB TRANSLATION  ACCESS:          0 HIT:          0 MISS:          0
cpu0_STLB PREFETCH REQUESTED:          0 ISSUED:          0 USEFUL:          0 USELESS:          0
cpu0_STLB AVERAGE MISS LATENCY: 221 cycles

DRAM Statistics

Channel 0 RQ ROW_BUFFER_HIT:     339110
  ROW_BUFFER_MISS:     136201
 AVG DBUS CONGESTED CYCLE: 3.764
WQ ROW_BUFFER_HIT: Channel 0 
  ROW_BUFFER_MISS:       1276
  FULL:      12166
