WARNING: physical memory size is smaller than virtual memory size.

*** ChampSim Multicore Out-of-Order Simulator ***
Warmup Instructions: 25000000
Simulation Instructions: 25000000
Number of CPUs: 1
Page size: 4096

Off-chip DRAM Size: 4 GiB Channels: 1 Width: 64-bit Data Race: 800 MT/s
Heartbeat CPU 0 instructions: 10000003 cycles: 2500092 heartbeat IPC: 4 cumulative IPC: 4 (Simulation time: 00 hr 00 min 29 sec)
Heartbeat CPU 0 instructions: 20000003 cycles: 5000092 heartbeat IPC: 4 cumulative IPC: 4 (Simulation time: 00 hr 00 min 57 sec)
Warmup finished CPU 0 instructions: 25000003 cycles: 6250093 cumulative IPC: 4 (Simulation time: 00 hr 01 min 11 sec)
Warmup complete CPU 0 instructions: 25000003 cycles: 6250093 cumulative IPC: 4 (Simulation time: 00 hr 01 min 11 sec)
Heartbeat CPU 0 instructions: 30000003 cycles: 26997885 heartbeat IPC: 0.4546 cumulative IPC: 0.241 (Simulation time: 00 hr 03 min 21 sec)
Heartbeat CPU 0 instructions: 40000000 cycles: 68880455 heartbeat IPC: 0.2388 cumulative IPC: 0.2395 (Simulation time: 00 hr 07 min 45 sec)
Heartbeat CPU 0 instructions: 50000001 cycles: 86747364 heartbeat IPC: 0.5597 cumulative IPC: 0.3106 (Simulation time: 00 hr 09 min 48 sec)
Simulation finished CPU 0 instructions: 25000002 cycles: 80497273 cumulative IPC: 0.3106 (Simulation time: 00 hr 09 min 48 sec)
Simulation complete CPU 0 instructions: 25000002 cycles: 80497273 cumulative IPC: 0.3106 (Simulation time: 00 hr 09 min 48 sec)

ChampSim completed all CPUs

=== Simulation ===
CPU 0 runs ./traces/603.bwaves_s-891B.champsimtrace.xz
Region of Interest Statistics

CPU 0 cumulative IPC: 0.3106 instructions: 25000002 cycles: 80497273
CPU 0 Branch Prediction Accuracy: 78.12% MPKI: 22.74 Average ROB Occupancy at Mispredict: 296.2
Branch type MPKI
BRANCH_DIRECT_JUMP: 0
BRANCH_INDIRECT: 0
BRANCH_CONDITIONAL: 22.7
BRANCH_DIRECT_CALL: 0
BRANCH_INDIRECT_CALL: 0
BRANCH_RETURN: 0

LLC TOTAL        ACCESS:     843258 HIT:     246424 MISS:     596834
LLC LOAD         ACCESS:      10378 HIT:        269 MISS:      10109
LLC RFO          ACCESS:          1 HIT:          0 MISS:          1
LLC PREFETCH     ACCESS:     586912 HIT:        211 MISS:     586701
LLC WRITE        ACCESS:     245846 HIT:     245844 MISS:          2
LLC TRANSLATION  ACCESS:        121 HIT:        100 MISS:         21
LLC PREFETCH REQUESTED:          0 ISSUED:          0 USEFUL:          0 USELESS:          0
LLC AVERAGE MISS LATENCY: 1563 cycles
cpu0_DTLB TOTAL        ACCESS:    5070842 HIT:    5018074 MISS:      52768
cpu0_DTLB LOAD         ACCESS:    5070842 HIT:    5018074 MISS:      52768
cpu0_DTLB RFO          ACCESS:          0 HIT:          0 MISS:          0
cpu0_DTLB PREFETCH     ACCESS:          0 HIT:          0 MISS:          0
cpu0_DTLB WRITE        ACCESS:          0 HIT:          0 MISS:          0
cpu0_DTLB TRANSLATION  ACCESS:          0 HIT:          0 MISS:          0
cpu0_DTLB PREFETCH REQUESTED:          0 ISSUED:          0 USEFUL:          0 USELESS:          0
cpu0_DTLB AVERAGE MISS LATENCY: 30.81 cycles
cpu0_ITLB TOTAL        ACCESS:          7 HIT:          7 MISS:          0
cpu0_ITLB LOAD         ACCESS:          7 HIT:          7 MISS:          0
cpu0_ITLB RFO          ACCESS:          0 HIT:          0 MISS:          0
cpu0_ITLB PREFETCH     ACCESS:          0 HIT:          0 MISS:          0
cpu0_ITLB WRITE        ACCESS:          0 HIT:          0 MISS:          0
cpu0_ITLB TRANSLATION  ACCESS:          0 HIT:          0 MISS:          0
cpu0_ITLB PREFETCH REQUESTED:          0 ISSUED:          0 USEFUL:          0 USELESS:          0
cpu0_ITLB AVERAGE MISS LATENCY: -nan cycles
cpu0_L1D TOTAL        ACCESS:    9227743 HIT:    3352200 MISS:    5875543
cpu0_L1D LOAD         ACCESS:    3945121 HIT:    1114647 MISS:    2830474
cpu0_L1D RFO          ACCESS:          0 HIT:          0 MISS:          0
cpu0_L1D PREFETCH     ACCESS:    3924172 HIT:     879616 MISS:    3044556
cpu0_L1D WRITE        ACCESS:    1349107 HIT:    1348765 MISS:        342
cpu0_L1D TRANSLATION  ACCESS:       9343 HIT:       9172 MISS:        171
cpu0_L1D PREFETCH REQUESTED:    3954643 ISSUED:    3924169 USEFUL:     581707 USELESS:        239
cpu0_L1D AVERAGE MISS LATENCY: 101.4 cycles
cpu0_L1I TOTAL        ACCESS:          9 HIT:          3 MISS:          6
cpu0_L1I LOAD         ACCESS:          9 HIT:          3 MISS:          6
cpu0_L1I RFO          ACCESS:          0 HIT:          0 MISS:          0
cpu0_L1I PREFETCH     ACCESS:          0 HIT:          0 MISS:          0
cpu0_L1I WRITE        ACCESS:          0 HIT:          0 MISS:          0
cpu0_L1I TRANSLATION  ACCESS:          0 HIT:          0 MISS:          0
cpu0_L1I PREFETCH REQUESTED:          0 ISSUED:          0 USEFUL:          0 USELESS:          0
cpu0_L1I AVERAGE MISS LATENCY: 885.2 cycles
cpu0_L2C TOTAL        ACCESS:    1138616 HIT:     244823 MISS:     893793
cpu0_L2C LOAD         ACCESS:      15526 HIT:        201 MISS:      15325
cpu0_L2C RFO          ACCESS:        215 HIT:        214 MISS:          1
cpu0_L2C PREFETCH     ACCESS:     878436 HIT:        268 MISS:     878168
cpu0_L2C WRITE        ACCESS:     244268 HIT:     244090 MISS:        178
cpu0_L2C TRANSLATION  ACCESS:        171 HIT:         50 MISS:        121
cpu0_L2C PREFETCH REQUESTED:     296491 ISSUED:     296491 USEFUL:       6085 USELESS:      96218
cpu0_L2C AVERAGE MISS LATENCY: 1056 cycles
cpu0_STLB TOTAL        ACCESS:       9351 HIT:         26 MISS:       9325
cpu0_STLB LOAD         ACCESS:       9351 HIT:         26 MISS:       9325
cpu0_STLB RFO          ACCESS:          0 HIT:          0 MISS:          0
cpu0_STLB PREFETCH     ACCESS:          0 HIT:          0 MISS:          0
cpu0_STLB WRITE        ACCESS:          0 HIT:          0 MISS:          0
cpu0_STLB TRANSLATION  ACCESS:          0 HIT:          0 MISS:          0
cpu0_STLB PREFETCH REQUESTED:          0 ISSUED:          0 USEFUL:          0 USELESS:          0
cpu0_STLB AVERAGE MISS LATENCY: 209.7 cycles

DRAM Statistics

Channel 0 RQ ROW_BUFFER_HIT:     424612
  ROW_BUFFER_MISS:     172213
 AVG DBUS CONGESTED CYCLE: 3.96
WQ ROW_BUFFER_HIT: Channel 0 
  ROW_BUFFER_MISS:     117826
  FULL:     140737
