WARNING: physical memory size is smaller than virtual memory size.

*** ChampSim Multicore Out-of-Order Simulator ***
Warmup Instructions: 25000000
Simulation Instructions: 25000000
Number of CPUs: 1
Page size: 4096

Off-chip DRAM Size: 4 GiB Channels: 1 Width: 64-bit Data Race: 800 MT/s
Heartbeat CPU 0 instructions: 10000002 cycles: 2500136 heartbeat IPC: 4 cumulative IPC: 4 (Simulation time: 00 hr 00 min 33 sec)
Heartbeat CPU 0 instructions: 20000003 cycles: 5000151 heartbeat IPC: 4 cumulative IPC: 4 (Simulation time: 00 hr 01 min 06 sec)
Warmup finished CPU 0 instructions: 25000003 cycles: 6250152 cumulative IPC: 4 (Simulation time: 00 hr 01 min 23 sec)
Warmup complete CPU 0 instructions: 25000003 cycles: 6250152 cumulative IPC: 4 (Simulation time: 00 hr 01 min 23 sec)
Heartbeat CPU 0 instructions: 30000000 cycles: 14011462 heartbeat IPC: 1.11 cumulative IPC: 0.6442 (Simulation time: 00 hr 02 min 27 sec)
Heartbeat CPU 0 instructions: 40000001 cycles: 29688262 heartbeat IPC: 0.6379 cumulative IPC: 0.64 (Simulation time: 00 hr 04 min 32 sec)
Heartbeat CPU 0 instructions: 50000003 cycles: 45271500 heartbeat IPC: 0.6417 cumulative IPC: 0.6407 (Simulation time: 00 hr 06 min 40 sec)
Simulation finished CPU 0 instructions: 25000000 cycles: 39021349 cumulative IPC: 0.6407 (Simulation time: 00 hr 06 min 40 sec)
Simulation complete CPU 0 instructions: 25000000 cycles: 39021349 cumulative IPC: 0.6407 (Simulation time: 00 hr 06 min 40 sec)

ChampSim completed all CPUs

=== Simulation ===
CPU 0 runs ./traces/603.bwaves_s-2609B.champsimtrace.xz
Region of Interest Statistics

CPU 0 cumulative IPC: 0.6407 instructions: 25000000 cycles: 39021349
CPU 0 Branch Prediction Accuracy: 81.23% MPKI: 4.685 Average ROB Occupancy at Mispredict: 300.5
Branch type MPKI
BRANCH_DIRECT_JUMP: 0
BRANCH_INDIRECT: 0
BRANCH_CONDITIONAL: 4.68
BRANCH_DIRECT_CALL: 0
BRANCH_INDIRECT_CALL: 0
BRANCH_RETURN: 0

LLC TOTAL        ACCESS:     503463 HIT:      24343 MISS:     479120
LLC LOAD         ACCESS:     236481 HIT:      10660 MISS:     225821
LLC RFO          ACCESS:      12181 HIT:          0 MISS:      12181
LLC PREFETCH     ACCESS:     242419 HIT:       1625 MISS:     240794
LLC WRITE        ACCESS:      12249 HIT:      11971 MISS:        278
LLC TRANSLATION  ACCESS:        133 HIT:         87 MISS:         46
LLC PREFETCH REQUESTED:          0 ISSUED:          0 USEFUL:          0 USELESS:          0
LLC AVERAGE MISS LATENCY: 1027 cycles
cpu0_DTLB TOTAL        ACCESS:    6672320 HIT:    6648555 MISS:      23765
cpu0_DTLB LOAD         ACCESS:    6672320 HIT:    6648555 MISS:      23765
cpu0_DTLB RFO          ACCESS:          0 HIT:          0 MISS:          0
cpu0_DTLB PREFETCH     ACCESS:          0 HIT:          0 MISS:          0
cpu0_DTLB WRITE        ACCESS:          0 HIT:          0 MISS:          0
cpu0_DTLB TRANSLATION  ACCESS:          0 HIT:          0 MISS:          0
cpu0_DTLB PREFETCH REQUESTED:          0 ISSUED:          0 USEFUL:          0 USELESS:          0
cpu0_DTLB AVERAGE MISS LATENCY: 57.06 cycles
cpu0_ITLB TOTAL        ACCESS:          0 HIT:          0 MISS:          0
cpu0_ITLB LOAD         ACCESS:          0 HIT:          0 MISS:          0
cpu0_ITLB RFO          ACCESS:          0 HIT:          0 MISS:          0
cpu0_ITLB PREFETCH     ACCESS:          0 HIT:          0 MISS:          0
cpu0_ITLB WRITE        ACCESS:          0 HIT:          0 MISS:          0
cpu0_ITLB TRANSLATION  ACCESS:          0 HIT:          0 MISS:          0
cpu0_ITLB PREFETCH REQUESTED:          0 ISSUED:          0 USEFUL:          0 USELESS:          0
cpu0_ITLB AVERAGE MISS LATENCY: -nan cycles
cpu0_L1D TOTAL        ACCESS:    9595226 HIT:    8366060 MISS:    1229166
cpu0_L1D LOAD         ACCESS:    6389285 HIT:    5632791 MISS:     756494
cpu0_L1D RFO          ACCESS:          0 HIT:          0 MISS:          0
cpu0_L1D PREFETCH     ACCESS:    1790146 HIT:    1387856 MISS:     402290
cpu0_L1D WRITE        ACCESS:    1408364 HIT:    1345155 MISS:      63209
cpu0_L1D TRANSLATION  ACCESS:       7431 HIT:        258 MISS:       7173
cpu0_L1D PREFETCH REQUESTED:    9467149 ISSUED:    1790153 USEFUL:     191907 USELESS:       6050
cpu0_L1D AVERAGE MISS LATENCY: 225.4 cycles
cpu0_L1I TOTAL        ACCESS:          0 HIT:          0 MISS:          0
cpu0_L1I LOAD         ACCESS:          0 HIT:          0 MISS:          0
cpu0_L1I RFO          ACCESS:          0 HIT:          0 MISS:          0
cpu0_L1I PREFETCH     ACCESS:          0 HIT:          0 MISS:          0
cpu0_L1I WRITE        ACCESS:          0 HIT:          0 MISS:          0
cpu0_L1I TRANSLATION  ACCESS:          0 HIT:          0 MISS:          0
cpu0_L1I PREFETCH REQUESTED:          0 ISSUED:          0 USEFUL:          0 USELESS:          0
cpu0_L1I AVERAGE MISS LATENCY: -nan cycles
cpu0_L2C TOTAL        ACCESS:     693753 HIT:     111458 MISS:     582295
cpu0_L2C LOAD         ACCESS:     311554 HIT:      46955 MISS:     264599
cpu0_L2C RFO          ACCESS:      14845 HIT:       2663 MISS:      12182
cpu0_L2C PREFETCH     ACCESS:     343882 HIT:      38579 MISS:     305303
cpu0_L2C WRITE        ACCESS:      16299 HIT:      16221 MISS:         78
cpu0_L2C TRANSLATION  ACCESS:       7173 HIT:       7040 MISS:        133
cpu0_L2C PREFETCH REQUESTED:     145919 ISSUED:     145919 USEFUL:      61691 USELESS:      11192
cpu0_L2C AVERAGE MISS LATENCY: 813.7 cycles
cpu0_STLB TOTAL        ACCESS:      13772 HIT:       6355 MISS:       7417
cpu0_STLB LOAD         ACCESS:      13772 HIT:       6355 MISS:       7417
cpu0_STLB RFO          ACCESS:          0 HIT:          0 MISS:          0
cpu0_STLB PREFETCH     ACCESS:          0 HIT:          0 MISS:          0
cpu0_STLB WRITE        ACCESS:          0 HIT:          0 MISS:          0
cpu0_STLB TRANSLATION  ACCESS:          0 HIT:          0 MISS:          0
cpu0_STLB PREFETCH REQUESTED:          0 ISSUED:          0 USEFUL:          0 USELESS:          0
cpu0_STLB AVERAGE MISS LATENCY: 221.1 cycles

DRAM Statistics

Channel 0 RQ ROW_BUFFER_HIT:     339442
  ROW_BUFFER_MISS:     135973
 AVG DBUS CONGESTED CYCLE: 3.762
WQ ROW_BUFFER_HIT: Channel 0 
  ROW_BUFFER_MISS:       1369
  FULL:      11142
