WARNING: physical memory size is smaller than virtual memory size.

*** ChampSim Multicore Out-of-Order Simulator ***
Warmup Instructions: 25000000
Simulation Instructions: 25000000
Number of CPUs: 1
Page size: 4096

Off-chip DRAM Size: 4 GiB Channels: 1 Width: 64-bit Data Race: 800 MT/s
Heartbeat CPU 0 instructions: 10000000 cycles: 2500105 heartbeat IPC: 4 cumulative IPC: 4 (Simulation time: 00 hr 00 min 29 sec)
Heartbeat CPU 0 instructions: 20000000 cycles: 5000105 heartbeat IPC: 4 cumulative IPC: 4 (Simulation time: 00 hr 00 min 58 sec)
Warmup finished CPU 0 instructions: 25000002 cycles: 6250109 cumulative IPC: 4 (Simulation time: 00 hr 01 min 13 sec)
Warmup complete CPU 0 instructions: 25000002 cycles: 6250109 cumulative IPC: 4 (Simulation time: 00 hr 01 min 13 sec)
Heartbeat CPU 0 instructions: 30000000 cycles: 15451033 heartbeat IPC: 0.9569 cumulative IPC: 0.5434 (Simulation time: 00 hr 02 min 17 sec)
Heartbeat CPU 0 instructions: 40000000 cycles: 33869201 heartbeat IPC: 0.5429 cumulative IPC: 0.5431 (Simulation time: 00 hr 04 min 31 sec)
Heartbeat CPU 0 instructions: 50000001 cycles: 51365764 heartbeat IPC: 0.5715 cumulative IPC: 0.5541 (Simulation time: 00 hr 06 min 47 sec)
Simulation finished CPU 0 instructions: 25000003 cycles: 45115657 cumulative IPC: 0.5541 (Simulation time: 00 hr 06 min 47 sec)
Simulation complete CPU 0 instructions: 25000003 cycles: 45115657 cumulative IPC: 0.5541 (Simulation time: 00 hr 06 min 47 sec)

ChampSim completed all CPUs

=== Simulation ===
CPU 0 runs ./traces/603.bwaves_s-2931B.champsimtrace.xz
Region of Interest Statistics

CPU 0 cumulative IPC: 0.5541 instructions: 25000003 cycles: 45115657
CPU 0 Branch Prediction Accuracy: 80.62% MPKI: 1.636 Average ROB Occupancy at Mispredict: 340.8
Branch type MPKI
BRANCH_DIRECT_JUMP: 0
BRANCH_INDIRECT: 0
BRANCH_CONDITIONAL: 1.64
BRANCH_DIRECT_CALL: 0
BRANCH_INDIRECT_CALL: 0
BRANCH_RETURN: 0

LLC TOTAL        ACCESS:     534717 HIT:     190226 MISS:     344491
LLC LOAD         ACCESS:      20536 HIT:       3708 MISS:      16828
LLC RFO          ACCESS:     148841 HIT:          0 MISS:     148841
LLC PREFETCH     ACCESS:     215921 HIT:      37244 MISS:     178677
LLC WRITE        ACCESS:     149064 HIT:     149063 MISS:          1
LLC TRANSLATION  ACCESS:        355 HIT:        211 MISS:        144
LLC PREFETCH REQUESTED:          0 ISSUED:          0 USEFUL:          0 USELESS:          0
LLC AVERAGE MISS LATENCY: 1513 cycles
cpu0_DTLB TOTAL        ACCESS:    5665889 HIT:    5627335 MISS:      38554
cpu0_DTLB LOAD         ACCESS:    5665889 HIT:    5627335 MISS:      38554
cpu0_DTLB RFO          ACCESS:          0 HIT:          0 MISS:          0
cpu0_DTLB PREFETCH     ACCESS:          0 HIT:          0 MISS:          0
cpu0_DTLB WRITE        ACCESS:          0 HIT:          0 MISS:          0
cpu0_DTLB TRANSLATION  ACCESS:          0 HIT:          0 MISS:          0
cpu0_DTLB PREFETCH REQUESTED:          0 ISSUED:          0 USEFUL:          0 USELESS:          0
cpu0_DTLB AVERAGE MISS LATENCY: 31.67 cycles
cpu0_ITLB TOTAL        ACCESS:          0 HIT:          0 MISS:          0
cpu0_ITLB LOAD         ACCESS:          0 HIT:          0 MISS:          0
cpu0_ITLB RFO          ACCESS:          0 HIT:          0 MISS:          0
cpu0_ITLB PREFETCH     ACCESS:          0 HIT:          0 MISS:          0
cpu0_ITLB WRITE        ACCESS:          0 HIT:          0 MISS:          0
cpu0_ITLB TRANSLATION  ACCESS:          0 HIT:          0 MISS:          0
cpu0_ITLB PREFETCH REQUESTED:          0 ISSUED:          0 USEFUL:          0 USELESS:          0
cpu0_ITLB AVERAGE MISS LATENCY: -nan cycles
cpu0_L1D TOTAL        ACCESS:    9070768 HIT:    7338380 MISS:    1732388
cpu0_L1D LOAD         ACCESS:    3290649 HIT:    3033787 MISS:     256862
cpu0_L1D RFO          ACCESS:          0 HIT:          0 MISS:          0
cpu0_L1D PREFETCH     ACCESS:    1312151 HIT:     859861 MISS:     452290
cpu0_L1D WRITE        ACCESS:    4462639 HIT:    3444729 MISS:    1017910
cpu0_L1D TRANSLATION  ACCESS:       5329 HIT:          3 MISS:       5326
cpu0_L1D PREFETCH REQUESTED:    3714946 ISSUED:    1312159 USEFUL:     248087 USELESS:       5286
cpu0_L1D AVERAGE MISS LATENCY: 195.3 cycles
cpu0_L1I TOTAL        ACCESS:          0 HIT:          0 MISS:          0
cpu0_L1I LOAD         ACCESS:          0 HIT:          0 MISS:          0
cpu0_L1I RFO          ACCESS:          0 HIT:          0 MISS:          0
cpu0_L1I PREFETCH     ACCESS:          0 HIT:          0 MISS:          0
cpu0_L1I WRITE        ACCESS:          0 HIT:          0 MISS:          0
cpu0_L1I TRANSLATION  ACCESS:          0 HIT:          0 MISS:          0
cpu0_L1I PREFETCH REQUESTED:          0 ISSUED:          0 USEFUL:          0 USELESS:          0
cpu0_L1I AVERAGE MISS LATENCY: -nan cycles
cpu0_L2C TOTAL        ACCESS:     691975 HIT:     304436 MISS:     387539
cpu0_L2C LOAD         ACCESS:      54233 HIT:      33624 MISS:      20609
cpu0_L2C RFO          ACCESS:     181566 HIT:      32725 MISS:     148841
cpu0_L2C PREFETCH     ACCESS:     266671 HIT:      49063 MISS:     217608
cpu0_L2C WRITE        ACCESS:     184179 HIT:     184053 MISS:        126
cpu0_L2C TRANSLATION  ACCESS:       5326 HIT:       4971 MISS:        355
cpu0_L2C PREFETCH REQUESTED:      13306 ISSUED:      13306 USEFUL:       8249 USELESS:        751
cpu0_L2C AVERAGE MISS LATENCY: 1363 cycles
cpu0_STLB TOTAL        ACCESS:      31025 HIT:      25710 MISS:       5315
cpu0_STLB LOAD         ACCESS:      31025 HIT:      25710 MISS:       5315
cpu0_STLB RFO          ACCESS:          0 HIT:          0 MISS:          0
cpu0_STLB PREFETCH     ACCESS:          0 HIT:          0 MISS:          0
cpu0_STLB WRITE        ACCESS:          0 HIT:          0 MISS:          0
cpu0_STLB TRANSLATION  ACCESS:          0 HIT:          0 MISS:          0
cpu0_STLB PREFETCH REQUESTED:          0 ISSUED:          0 USEFUL:          0 USELESS:          0
cpu0_STLB AVERAGE MISS LATENCY: 263.2 cycles

DRAM Statistics

Channel 0 RQ ROW_BUFFER_HIT:     219287
  ROW_BUFFER_MISS:     125194
 AVG DBUS CONGESTED CYCLE: 3.835
WQ ROW_BUFFER_HIT: Channel 0 
  ROW_BUFFER_MISS:      66618
  FULL:      83556
