WARNING: physical memory size is smaller than virtual memory size.

*** ChampSim Multicore Out-of-Order Simulator ***
Warmup Instructions: 25000000
Simulation Instructions: 25000000
Number of CPUs: 1
Page size: 4096

Off-chip DRAM Size: 4 GiB Channels: 1 Width: 64-bit Data Race: 800 MT/s
Heartbeat CPU 0 instructions: 10000000 cycles: 3499422 heartbeat IPC: 2.858 cumulative IPC: 2.858 (Simulation time: 00 hr 00 min 53 sec)
Heartbeat CPU 0 instructions: 20000003 cycles: 6997656 heartbeat IPC: 2.859 cumulative IPC: 2.858 (Simulation time: 00 hr 01 min 47 sec)
Warmup finished CPU 0 instructions: 25000002 cycles: 8748851 cumulative IPC: 2.858 (Simulation time: 00 hr 02 min 15 sec)
Warmup complete CPU 0 instructions: 25000002 cycles: 8748851 cumulative IPC: 2.858 (Simulation time: 00 hr 02 min 15 sec)
Heartbeat CPU 0 instructions: 30000002 cycles: 78988480 heartbeat IPC: 0.1389 cumulative IPC: 0.07118 (Simulation time: 00 hr 07 min 33 sec)
Heartbeat CPU 0 instructions: 40000003 cycles: 222841397 heartbeat IPC: 0.06952 cumulative IPC: 0.07006 (Simulation time: 00 hr 13 min 45 sec)
Heartbeat CPU 0 instructions: 50000001 cycles: 367134808 heartbeat IPC: 0.0693 cumulative IPC: 0.06976 (Simulation time: 00 hr 19 min 07 sec)
Simulation finished CPU 0 instructions: 25000003 cycles: 358385959 cumulative IPC: 0.06976 (Simulation time: 00 hr 19 min 07 sec)
Simulation complete CPU 0 instructions: 25000003 cycles: 358385959 cumulative IPC: 0.06976 (Simulation time: 00 hr 19 min 07 sec)

ChampSim completed all CPUs

=== Simulation ===
CPU 0 runs ./traces/605.mcf_s-1644B.champsimtrace.xz
Region of Interest Statistics

CPU 0 cumulative IPC: 0.06976 instructions: 25000003 cycles: 358385959
CPU 0 Branch Prediction Accuracy: 93.34% MPKI: 8.275 Average ROB Occupancy at Mispredict: 85.16
Branch type MPKI
BRANCH_DIRECT_JUMP: 0
BRANCH_INDIRECT: 0
BRANCH_CONDITIONAL: 8.27
BRANCH_DIRECT_CALL: 0
BRANCH_INDIRECT_CALL: 0
BRANCH_RETURN: 0

LLC TOTAL        ACCESS:    5485548 HIT:    2760324 MISS:    2725224
LLC LOAD         ACCESS:     755418 HIT:     377030 MISS:     378388
LLC RFO          ACCESS:    1093081 HIT:        527 MISS:    1092554
LLC PREFETCH     ACCESS:     811274 HIT:     253452 MISS:     557822
LLC WRITE        ACCESS:    2215380 HIT:    2094547 MISS:     120833
LLC TRANSLATION  ACCESS:     610395 HIT:      34768 MISS:     575627
LLC PREFETCH REQUESTED:          0 ISSUED:          0 USEFUL:          0 USELESS:          0
LLC AVERAGE MISS LATENCY: 990.2 cycles
cpu0_DTLB TOTAL        ACCESS:    8397460 HIT:    5223445 MISS:    3174015
cpu0_DTLB LOAD         ACCESS:    8397460 HIT:    5223445 MISS:    3174015
cpu0_DTLB RFO          ACCESS:          0 HIT:          0 MISS:          0
cpu0_DTLB PREFETCH     ACCESS:          0 HIT:          0 MISS:          0
cpu0_DTLB WRITE        ACCESS:          0 HIT:          0 MISS:          0
cpu0_DTLB TRANSLATION  ACCESS:          0 HIT:          0 MISS:          0
cpu0_DTLB PREFETCH REQUESTED:          0 ISSUED:          0 USEFUL:          0 USELESS:          0
cpu0_DTLB AVERAGE MISS LATENCY: 203 cycles
cpu0_ITLB TOTAL        ACCESS:          0 HIT:          0 MISS:          0
cpu0_ITLB LOAD         ACCESS:          0 HIT:          0 MISS:          0
cpu0_ITLB RFO          ACCESS:          0 HIT:          0 MISS:          0
cpu0_ITLB PREFETCH     ACCESS:          0 HIT:          0 MISS:          0
cpu0_ITLB WRITE        ACCESS:          0 HIT:          0 MISS:          0
cpu0_ITLB TRANSLATION  ACCESS:          0 HIT:          0 MISS:          0
cpu0_ITLB PREFETCH REQUESTED:          0 ISSUED:          0 USEFUL:          0 USELESS:          0
cpu0_ITLB AVERAGE MISS LATENCY: -nan cycles
cpu0_L1D TOTAL        ACCESS:   15232534 HIT:    6448218 MISS:    8784316
cpu0_L1D LOAD         ACCESS:    3097634 HIT:    1675611 MISS:    1422023
cpu0_L1D RFO          ACCESS:          0 HIT:          0 MISS:          0
cpu0_L1D PREFETCH     ACCESS:    2756567 HIT:    1100916 MISS:    1655651
cpu0_L1D WRITE        ACCESS:    8511504 HIT:    3591240 MISS:    4920264
cpu0_L1D TRANSLATION  ACCESS:     866829 HIT:      80451 MISS:     786378
cpu0_L1D PREFETCH REQUESTED:    3589507 ISSUED:    2756561 USEFUL:     304253 USELESS:     481393
cpu0_L1D AVERAGE MISS LATENCY: 288.7 cycles
cpu0_L1I TOTAL        ACCESS:          0 HIT:          0 MISS:          0
cpu0_L1I LOAD         ACCESS:          0 HIT:          0 MISS:          0
cpu0_L1I RFO          ACCESS:          0 HIT:          0 MISS:          0
cpu0_L1I PREFETCH     ACCESS:          0 HIT:          0 MISS:          0
cpu0_L1I WRITE        ACCESS:          0 HIT:          0 MISS:          0
cpu0_L1I TRANSLATION  ACCESS:          0 HIT:          0 MISS:          0
cpu0_L1I PREFETCH REQUESTED:          0 ISSUED:          0 USEFUL:          0 USELESS:          0
cpu0_L1I AVERAGE MISS LATENCY: -nan cycles
cpu0_L2C TOTAL        ACCESS:    6015987 HIT:    2633938 MISS:    3382049
cpu0_L2C LOAD         ACCESS:     865138 HIT:      94865 MISS:     770273
cpu0_L2C RFO          ACCESS:    1094724 HIT:       1643 MISS:    1093081
cpu0_L2C PREFETCH     ACCESS:    1008732 HIT:     102225 MISS:     906507
cpu0_L2C WRITE        ACCESS:    2264034 HIT:    2262240 MISS:       1794
cpu0_L2C TRANSLATION  ACCESS:     783359 HIT:     172965 MISS:     610394
cpu0_L2C PREFETCH REQUESTED:     223018 ISSUED:     223018 USEFUL:     132315 USELESS:       9746
cpu0_L2C AVERAGE MISS LATENCY: 813.4 cycles
cpu0_STLB TOTAL        ACCESS:     727494 HIT:     130437 MISS:     597057
cpu0_STLB LOAD         ACCESS:     727494 HIT:     130437 MISS:     597057
cpu0_STLB RFO          ACCESS:          0 HIT:          0 MISS:          0
cpu0_STLB PREFETCH     ACCESS:          0 HIT:          0 MISS:          0
cpu0_STLB WRITE        ACCESS:          0 HIT:          0 MISS:          0
cpu0_STLB TRANSLATION  ACCESS:          0 HIT:          0 MISS:          0
cpu0_STLB PREFETCH REQUESTED:          0 ISSUED:          0 USEFUL:          0 USELESS:          0
cpu0_STLB AVERAGE MISS LATENCY: 1132 cycles

DRAM Statistics

Channel 0 RQ ROW_BUFFER_HIT:     108166
  ROW_BUFFER_MISS:    2494169
 AVG DBUS CONGESTED CYCLE: 3.986
WQ ROW_BUFFER_HIT: Channel 0 
  ROW_BUFFER_MISS:       3605
  FULL:    1833798
