WARNING: physical memory size is smaller than virtual memory size.

*** ChampSim Multicore Out-of-Order Simulator ***
Warmup Instructions: 25000000
Simulation Instructions: 25000000
Number of CPUs: 1
Page size: 4096

Off-chip DRAM Size: 4 GiB Channels: 1 Width: 64-bit Data Race: 800 MT/s
Heartbeat CPU 0 instructions: 10000000 cycles: 2500791 heartbeat IPC: 3.999 cumulative IPC: 3.999 (Simulation time: 00 hr 00 min 28 sec)
Heartbeat CPU 0 instructions: 20000002 cycles: 5001206 heartbeat IPC: 3.999 cumulative IPC: 3.999 (Simulation time: 00 hr 00 min 57 sec)
Warmup finished CPU 0 instructions: 25000003 cycles: 6254239 cumulative IPC: 3.997 (Simulation time: 00 hr 01 min 12 sec)
Warmup complete CPU 0 instructions: 25000003 cycles: 6254239 cumulative IPC: 3.997 (Simulation time: 00 hr 01 min 12 sec)
Heartbeat CPU 0 instructions: 30000000 cycles: 24820389 heartbeat IPC: 0.5046 cumulative IPC: 0.2693 (Simulation time: 00 hr 02 min 44 sec)
Heartbeat CPU 0 instructions: 40000001 cycles: 48510071 heartbeat IPC: 0.4221 cumulative IPC: 0.355 (Simulation time: 00 hr 04 min 52 sec)
Heartbeat CPU 0 instructions: 50000000 cycles: 154396848 heartbeat IPC: 0.09444 cumulative IPC: 0.1688 (Simulation time: 00 hr 12 min 43 sec)
Simulation finished CPU 0 instructions: 25000001 cycles: 148142860 cumulative IPC: 0.1688 (Simulation time: 00 hr 12 min 43 sec)
Simulation complete CPU 0 instructions: 25000001 cycles: 148142860 cumulative IPC: 0.1688 (Simulation time: 00 hr 12 min 43 sec)

ChampSim completed all CPUs

=== Simulation ===
CPU 0 runs ./traces/605.mcf_s-994B.champsimtrace.xz
Region of Interest Statistics

CPU 0 cumulative IPC: 0.1688 instructions: 25000001 cycles: 148142860
CPU 0 Branch Prediction Accuracy: 91.07% MPKI: 22.99 Average ROB Occupancy at Mispredict: 32.57
Branch type MPKI
BRANCH_DIRECT_JUMP: 0.125
BRANCH_INDIRECT: 0
BRANCH_CONDITIONAL: 22.9
BRANCH_DIRECT_CALL: 0
BRANCH_INDIRECT_CALL: 0.00236
BRANCH_RETURN: 4e-05

LLC TOTAL        ACCESS:    1514844 HIT:     343967 MISS:    1170877
LLC LOAD         ACCESS:     724738 HIT:     193380 MISS:     531358
LLC RFO          ACCESS:       1890 HIT:       1613 MISS:        277
LLC PREFETCH     ACCESS:     496537 HIT:      74905 MISS:     421632
LLC WRITE        ACCESS:      59065 HIT:      48832 MISS:      10233
LLC TRANSLATION  ACCESS:     232614 HIT:      25237 MISS:     207377
LLC PREFETCH REQUESTED:          0 ISSUED:          0 USEFUL:          0 USELESS:          0
LLC AVERAGE MISS LATENCY: 301.3 cycles
cpu0_DTLB TOTAL        ACCESS:    7595805 HIT:    7132669 MISS:     463136
cpu0_DTLB LOAD         ACCESS:    7595805 HIT:    7132669 MISS:     463136
cpu0_DTLB RFO          ACCESS:          0 HIT:          0 MISS:          0
cpu0_DTLB PREFETCH     ACCESS:          0 HIT:          0 MISS:          0
cpu0_DTLB WRITE        ACCESS:          0 HIT:          0 MISS:          0
cpu0_DTLB TRANSLATION  ACCESS:          0 HIT:          0 MISS:          0
cpu0_DTLB PREFETCH REQUESTED:          0 ISSUED:          0 USEFUL:          0 USELESS:          0
cpu0_DTLB AVERAGE MISS LATENCY: 235.5 cycles
cpu0_ITLB TOTAL        ACCESS:       2013 HIT:       2013 MISS:          0
cpu0_ITLB LOAD         ACCESS:       2013 HIT:       2013 MISS:          0
cpu0_ITLB RFO          ACCESS:          0 HIT:          0 MISS:          0
cpu0_ITLB PREFETCH     ACCESS:          0 HIT:          0 MISS:          0
cpu0_ITLB WRITE        ACCESS:          0 HIT:          0 MISS:          0
cpu0_ITLB TRANSLATION  ACCESS:          0 HIT:          0 MISS:          0
cpu0_ITLB PREFETCH REQUESTED:          0 ISSUED:          0 USEFUL:          0 USELESS:          0
cpu0_ITLB AVERAGE MISS LATENCY: -nan cycles
cpu0_L1D TOTAL        ACCESS:   15694172 HIT:   13475014 MISS:    2219158
cpu0_L1D LOAD         ACCESS:    7123374 HIT:    6109424 MISS:    1013950
cpu0_L1D RFO          ACCESS:          0 HIT:          0 MISS:          0
cpu0_L1D PREFETCH     ACCESS:    5650115 HIT:    4801268 MISS:     848847
cpu0_L1D WRITE        ACCESS:    2522794 HIT:    2482530 MISS:      40264
cpu0_L1D TRANSLATION  ACCESS:     397889 HIT:      81792 MISS:     316097
cpu0_L1D PREFETCH REQUESTED:    7415921 ISSUED:    5650107 USEFUL:      48395 USELESS:     515791
cpu0_L1D AVERAGE MISS LATENCY: 178.3 cycles
cpu0_L1I TOTAL        ACCESS:       2013 HIT:       2013 MISS:          0
cpu0_L1I LOAD         ACCESS:       2013 HIT:       2013 MISS:          0
cpu0_L1I RFO          ACCESS:          0 HIT:          0 MISS:          0
cpu0_L1I PREFETCH     ACCESS:          0 HIT:          0 MISS:          0
cpu0_L1I WRITE        ACCESS:          0 HIT:          0 MISS:          0
cpu0_L1I TRANSLATION  ACCESS:          0 HIT:          0 MISS:          0
cpu0_L1I PREFETCH REQUESTED:          0 ISSUED:          0 USEFUL:          0 USELESS:          0
cpu0_L1I AVERAGE MISS LATENCY: -nan cycles
cpu0_L2C TOTAL        ACCESS:    2027459 HIT:     571156 MISS:    1456303
cpu0_L2C LOAD         ACCESS:     976013 HIT:     251262 MISS:     724751
cpu0_L2C RFO          ACCESS:      10705 HIT:       8815 MISS:       1890
cpu0_L2C PREFETCH     ACCESS:     643592 HIT:     146773 MISS:     496819
cpu0_L2C WRITE        ACCESS:      81382 HIT:      81153 MISS:        229
cpu0_L2C TRANSLATION  ACCESS:     315767 HIT:      83153 MISS:     232614
cpu0_L2C PREFETCH REQUESTED:      79310 ISSUED:      79310 USEFUL:      24193 USELESS:        326
cpu0_L2C AVERAGE MISS LATENCY: 263 cycles
cpu0_STLB TOTAL        ACCESS:     396880 HIT:     160102 MISS:     236778
cpu0_STLB LOAD         ACCESS:     396880 HIT:     160102 MISS:     236778
cpu0_STLB RFO          ACCESS:          0 HIT:          0 MISS:          0
cpu0_STLB PREFETCH     ACCESS:          0 HIT:          0 MISS:          0
cpu0_STLB WRITE        ACCESS:          0 HIT:          0 MISS:          0
cpu0_STLB TRANSLATION  ACCESS:          0 HIT:          0 MISS:          0
cpu0_STLB PREFETCH REQUESTED:          0 ISSUED:          0 USEFUL:          0 USELESS:          0
cpu0_STLB AVERAGE MISS LATENCY: 448.5 cycles

DRAM Statistics

Channel 0 RQ ROW_BUFFER_HIT:     176112
  ROW_BUFFER_MISS:     984409
 AVG DBUS CONGESTED CYCLE: 3.904
WQ ROW_BUFFER_HIT: Channel 0 
  ROW_BUFFER_MISS:      10507
  FULL:      36879
