WARNING: physical memory size is smaller than virtual memory size.

*** ChampSim Multicore Out-of-Order Simulator ***
Warmup Instructions: 25000000
Simulation Instructions: 25000000
Number of CPUs: 1
Page size: 4096

Off-chip DRAM Size: 4 GiB Channels: 1 Width: 64-bit Data Race: 800 MT/s
Heartbeat CPU 0 instructions: 10000003 cycles: 2511301 heartbeat IPC: 3.982 cumulative IPC: 3.982 (Simulation time: 00 hr 00 min 33 sec)
Heartbeat CPU 0 instructions: 20000001 cycles: 5022280 heartbeat IPC: 3.983 cumulative IPC: 3.982 (Simulation time: 00 hr 01 min 08 sec)
Warmup finished CPU 0 instructions: 25000001 cycles: 6278330 cumulative IPC: 3.982 (Simulation time: 00 hr 01 min 25 sec)
Warmup complete CPU 0 instructions: 25000001 cycles: 6278330 cumulative IPC: 3.982 (Simulation time: 00 hr 01 min 25 sec)
Heartbeat CPU 0 instructions: 30000001 cycles: 25408245 heartbeat IPC: 0.4905 cumulative IPC: 0.2614 (Simulation time: 00 hr 03 min 22 sec)
Heartbeat CPU 0 instructions: 40000003 cycles: 65134448 heartbeat IPC: 0.2517 cumulative IPC: 0.2549 (Simulation time: 00 hr 06 min 45 sec)
Heartbeat CPU 0 instructions: 50000003 cycles: 105431408 heartbeat IPC: 0.2482 cumulative IPC: 0.2521 (Simulation time: 00 hr 09 min 15 sec)
Simulation finished CPU 0 instructions: 25000002 cycles: 99153079 cumulative IPC: 0.2521 (Simulation time: 00 hr 09 min 15 sec)
Simulation complete CPU 0 instructions: 25000002 cycles: 99153079 cumulative IPC: 0.2521 (Simulation time: 00 hr 09 min 15 sec)

ChampSim completed all CPUs

=== Simulation ===
CPU 0 runs ./traces/605.mcf_s-1554B.champsimtrace.xz
Region of Interest Statistics

CPU 0 cumulative IPC: 0.2521 instructions: 25000002 cycles: 99153079
CPU 0 Branch Prediction Accuracy: 97.34% MPKI: 4.839 Average ROB Occupancy at Mispredict: 44.06
Branch type MPKI
BRANCH_DIRECT_JUMP: 0
BRANCH_INDIRECT: 0
BRANCH_CONDITIONAL: 4.84
BRANCH_DIRECT_CALL: 0
BRANCH_INDIRECT_CALL: 0
BRANCH_RETURN: 0

LLC TOTAL        ACCESS:    6301401 HIT:    3873825 MISS:    2427576
LLC LOAD         ACCESS:    3204340 HIT:    2773045 MISS:     431295
LLC RFO          ACCESS:      72871 HIT:        410 MISS:      72461
LLC PREFETCH     ACCESS:    2932086 HIT:    1064396 MISS:    1867690
LLC WRITE        ACCESS:      91524 HIT:      35884 MISS:      55640
LLC TRANSLATION  ACCESS:        580 HIT:         90 MISS:        490
LLC PREFETCH REQUESTED:          0 ISSUED:          0 USEFUL:          0 USELESS:          0
LLC AVERAGE MISS LATENCY: 676.9 cycles
cpu0_DTLB TOTAL        ACCESS:    6736656 HIT:    6572095 MISS:     164561
cpu0_DTLB LOAD         ACCESS:    6736656 HIT:    6572095 MISS:     164561
cpu0_DTLB RFO          ACCESS:          0 HIT:          0 MISS:          0
cpu0_DTLB PREFETCH     ACCESS:          0 HIT:          0 MISS:          0
cpu0_DTLB WRITE        ACCESS:          0 HIT:          0 MISS:          0
cpu0_DTLB TRANSLATION  ACCESS:          0 HIT:          0 MISS:          0
cpu0_DTLB PREFETCH REQUESTED:          0 ISSUED:          0 USEFUL:          0 USELESS:          0
cpu0_DTLB AVERAGE MISS LATENCY: 7.273 cycles
cpu0_ITLB TOTAL        ACCESS:          0 HIT:          0 MISS:          0
cpu0_ITLB LOAD         ACCESS:          0 HIT:          0 MISS:          0
cpu0_ITLB RFO          ACCESS:          0 HIT:          0 MISS:          0
cpu0_ITLB PREFETCH     ACCESS:          0 HIT:          0 MISS:          0
cpu0_ITLB WRITE        ACCESS:          0 HIT:          0 MISS:          0
cpu0_ITLB TRANSLATION  ACCESS:          0 HIT:          0 MISS:          0
cpu0_ITLB PREFETCH REQUESTED:          0 ISSUED:          0 USEFUL:          0 USELESS:          0
cpu0_ITLB AVERAGE MISS LATENCY: -nan cycles
cpu0_L1D TOTAL        ACCESS:   10963786 HIT:    5235093 MISS:    5728693
cpu0_L1D LOAD         ACCESS:    6634622 HIT:    2426378 MISS:    4208244
cpu0_L1D RFO          ACCESS:          0 HIT:          0 MISS:          0
cpu0_L1D PREFETCH     ACCESS:    2833768 HIT:    1669403 MISS:    1164365
cpu0_L1D WRITE        ACCESS:    1493225 HIT:    1139242 MISS:     353983
cpu0_L1D TRANSLATION  ACCESS:       2171 HIT:         70 MISS:       2101
cpu0_L1D PREFETCH REQUESTED:   45311349 ISSUED:    2833760 USEFUL:      53508 USELESS:     556412
cpu0_L1D AVERAGE MISS LATENCY: 201 cycles
cpu0_L1I TOTAL        ACCESS:          0 HIT:          0 MISS:          0
cpu0_L1I LOAD         ACCESS:          0 HIT:          0 MISS:          0
cpu0_L1I RFO          ACCESS:          0 HIT:          0 MISS:          0
cpu0_L1I PREFETCH     ACCESS:          0 HIT:          0 MISS:          0
cpu0_L1I WRITE        ACCESS:          0 HIT:          0 MISS:          0
cpu0_L1I TRANSLATION  ACCESS:          0 HIT:          0 MISS:          0
cpu0_L1I PREFETCH REQUESTED:          0 ISSUED:          0 USEFUL:          0 USELESS:          0
cpu0_L1I AVERAGE MISS LATENCY: -nan cycles
cpu0_L2C TOTAL        ACCESS:    7332746 HIT:     591214 MISS:    6741532
cpu0_L2C LOAD         ACCESS:    3717873 HIT:     285921 MISS:    3431952
cpu0_L2C RFO          ACCESS:      75209 HIT:       2338 MISS:      72871
cpu0_L2C PREFETCH     ACCESS:    3443676 HIT:     207847 MISS:    3235829
cpu0_L2C WRITE        ACCESS:      93887 HIT:      93587 MISS:        300
cpu0_L2C TRANSLATION  ACCESS:       2101 HIT:       1521 MISS:        580
cpu0_L2C PREFETCH REQUESTED:    2833680 ISSUED:    2833680 USEFUL:     536334 USELESS:     141999
cpu0_L2C AVERAGE MISS LATENCY: 189.3 cycles
cpu0_STLB TOTAL        ACCESS:      98462 HIT:      96294 MISS:       2168
cpu0_STLB LOAD         ACCESS:      98462 HIT:      96294 MISS:       2168
cpu0_STLB RFO          ACCESS:          0 HIT:          0 MISS:          0
cpu0_STLB PREFETCH     ACCESS:          0 HIT:          0 MISS:          0
cpu0_STLB WRITE        ACCESS:          0 HIT:          0 MISS:          0
cpu0_STLB TRANSLATION  ACCESS:          0 HIT:          0 MISS:          0
cpu0_STLB PREFETCH REQUESTED:          0 ISSUED:          0 USEFUL:          0 USELESS:          0
cpu0_STLB AVERAGE MISS LATENCY: 340.7 cycles

DRAM Statistics

Channel 0 RQ ROW_BUFFER_HIT:    1263222
  ROW_BUFFER_MISS:     481865
 AVG DBUS CONGESTED CYCLE: 3.882
WQ ROW_BUFFER_HIT: Channel 0 
  ROW_BUFFER_MISS:      22820
  FULL:      67579
