WARNING: physical memory size is smaller than virtual memory size.

*** ChampSim Multicore Out-of-Order Simulator ***
Warmup Instructions: 25000000
Simulation Instructions: 25000000
Number of CPUs: 1
Page size: 4096

Off-chip DRAM Size: 4 GiB Channels: 1 Width: 64-bit Data Race: 800 MT/s
Heartbeat CPU 0 instructions: 10000000 cycles: 3099469 heartbeat IPC: 3.226 cumulative IPC: 3.226 (Simulation time: 00 hr 00 min 31 sec)
Heartbeat CPU 0 instructions: 20000003 cycles: 6152930 heartbeat IPC: 3.275 cumulative IPC: 3.25 (Simulation time: 00 hr 01 min 02 sec)
Warmup finished CPU 0 instructions: 25000002 cycles: 7641496 cumulative IPC: 3.272 (Simulation time: 00 hr 01 min 18 sec)
Warmup complete CPU 0 instructions: 25000002 cycles: 7641496 cumulative IPC: 3.272 (Simulation time: 00 hr 01 min 18 sec)
Heartbeat CPU 0 instructions: 30000000 cycles: 15859964 heartbeat IPC: 1.03 cumulative IPC: 0.6084 (Simulation time: 00 hr 02 min 08 sec)
Heartbeat CPU 0 instructions: 40000000 cycles: 34845059 heartbeat IPC: 0.5267 cumulative IPC: 0.5514 (Simulation time: 00 hr 04 min 01 sec)
Heartbeat CPU 0 instructions: 50000000 cycles: 58746256 heartbeat IPC: 0.4184 cumulative IPC: 0.4892 (Simulation time: 00 hr 06 min 32 sec)
Simulation finished CPU 0 instructions: 25000002 cycles: 51104762 cumulative IPC: 0.4892 (Simulation time: 00 hr 06 min 32 sec)
Simulation complete CPU 0 instructions: 25000002 cycles: 51104762 cumulative IPC: 0.4892 (Simulation time: 00 hr 06 min 32 sec)

ChampSim completed all CPUs

=== Simulation ===
CPU 0 runs ./traces/605.mcf_s-484B.champsimtrace.xz
Region of Interest Statistics

CPU 0 cumulative IPC: 0.4892 instructions: 25000002 cycles: 51104762
CPU 0 Branch Prediction Accuracy: 96.99% MPKI: 2.864 Average ROB Occupancy at Mispredict: 79.02
Branch type MPKI
BRANCH_DIRECT_JUMP: 0
BRANCH_INDIRECT: 0
BRANCH_CONDITIONAL: 2.86
BRANCH_DIRECT_CALL: 0
BRANCH_INDIRECT_CALL: 0
BRANCH_RETURN: 0

LLC TOTAL        ACCESS:     896883 HIT:     172682 MISS:     724201
LLC LOAD         ACCESS:     406228 HIT:      39561 MISS:     366667
LLC RFO          ACCESS:      47368 HIT:         30 MISS:      47338
LLC PREFETCH     ACCESS:     296759 HIT:      17024 MISS:     279735
LLC WRITE        ACCESS:     143239 HIT:     114323 MISS:      28916
LLC TRANSLATION  ACCESS:       3289 HIT:       1744 MISS:       1545
LLC PREFETCH REQUESTED:          0 ISSUED:          0 USEFUL:          0 USELESS:          0
LLC AVERAGE MISS LATENCY: 653.4 cycles
cpu0_DTLB TOTAL        ACCESS:    7877321 HIT:    7763468 MISS:     113853
cpu0_DTLB LOAD         ACCESS:    7877321 HIT:    7763468 MISS:     113853
cpu0_DTLB RFO          ACCESS:          0 HIT:          0 MISS:          0
cpu0_DTLB PREFETCH     ACCESS:          0 HIT:          0 MISS:          0
cpu0_DTLB WRITE        ACCESS:          0 HIT:          0 MISS:          0
cpu0_DTLB TRANSLATION  ACCESS:          0 HIT:          0 MISS:          0
cpu0_DTLB PREFETCH REQUESTED:          0 ISSUED:          0 USEFUL:          0 USELESS:          0
cpu0_DTLB AVERAGE MISS LATENCY: 30.04 cycles
cpu0_ITLB TOTAL        ACCESS:          0 HIT:          0 MISS:          0
cpu0_ITLB LOAD         ACCESS:          0 HIT:          0 MISS:          0
cpu0_ITLB RFO          ACCESS:          0 HIT:          0 MISS:          0
cpu0_ITLB PREFETCH     ACCESS:          0 HIT:          0 MISS:          0
cpu0_ITLB WRITE        ACCESS:          0 HIT:          0 MISS:          0
cpu0_ITLB TRANSLATION  ACCESS:          0 HIT:          0 MISS:          0
cpu0_ITLB PREFETCH REQUESTED:          0 ISSUED:          0 USEFUL:          0 USELESS:          0
cpu0_ITLB AVERAGE MISS LATENCY: -nan cycles
cpu0_L1D TOTAL        ACCESS:   13399430 HIT:   12488763 MISS:     910667
cpu0_L1D LOAD         ACCESS:    4618514 HIT:    4101544 MISS:     516970
cpu0_L1D RFO          ACCESS:          0 HIT:          0 MISS:          0
cpu0_L1D PREFETCH     ACCESS:    1564914 HIT:    1400355 MISS:     164559
cpu0_L1D WRITE        ACCESS:    7200717 HIT:    6980264 MISS:     220453
cpu0_L1D TRANSLATION  ACCESS:      15285 HIT:       6600 MISS:       8685
cpu0_L1D PREFETCH REQUESTED:   17178877 ISSUED:    1564910 USEFUL:      12738 USELESS:      74886
cpu0_L1D AVERAGE MISS LATENCY: 419.2 cycles
cpu0_L1I TOTAL        ACCESS:          0 HIT:          0 MISS:          0
cpu0_L1I LOAD         ACCESS:          0 HIT:          0 MISS:          0
cpu0_L1I RFO          ACCESS:          0 HIT:          0 MISS:          0
cpu0_L1I PREFETCH     ACCESS:          0 HIT:          0 MISS:          0
cpu0_L1I WRITE        ACCESS:          0 HIT:          0 MISS:          0
cpu0_L1I TRANSLATION  ACCESS:          0 HIT:          0 MISS:          0
cpu0_L1I PREFETCH REQUESTED:          0 ISSUED:          0 USEFUL:          0 USELESS:          0
cpu0_L1I AVERAGE MISS LATENCY: -nan cycles
cpu0_L2C TOTAL        ACCESS:    1054498 HIT:     276221 MISS:     778277
cpu0_L2C LOAD         ACCESS:     482577 HIT:      64757 MISS:     417820
cpu0_L2C RFO          ACCESS:      49392 HIT:       2024 MISS:      47368
cpu0_L2C PREFETCH     ACCESS:     354320 HIT:      45201 MISS:     309119
cpu0_L2C WRITE        ACCESS:     159524 HIT:     158843 MISS:        681
cpu0_L2C TRANSLATION  ACCESS:       8685 HIT:       5396 MISS:       3289
cpu0_L2C PREFETCH REQUESTED:     266620 ISSUED:     266620 USEFUL:      72505 USELESS:       8454
cpu0_L2C AVERAGE MISS LATENCY: 541.6 cycles
cpu0_STLB TOTAL        ACCESS:      54673 HIT:      39414 MISS:      15259
cpu0_STLB LOAD         ACCESS:      54673 HIT:      39414 MISS:      15259
cpu0_STLB RFO          ACCESS:          0 HIT:          0 MISS:          0
cpu0_STLB PREFETCH     ACCESS:          0 HIT:          0 MISS:          0
cpu0_STLB WRITE        ACCESS:          0 HIT:          0 MISS:          0
cpu0_STLB TRANSLATION  ACCESS:          0 HIT:          0 MISS:          0
cpu0_STLB PREFETCH REQUESTED:          0 ISSUED:          0 USEFUL:          0 USELESS:          0
cpu0_STLB AVERAGE MISS LATENCY: 309.4 cycles

DRAM Statistics

Channel 0 RQ ROW_BUFFER_HIT:     268337
  ROW_BUFFER_MISS:     332722
 AVG DBUS CONGESTED CYCLE: 3.922
WQ ROW_BUFFER_HIT: Channel 0 
  ROW_BUFFER_MISS:       7025
  FULL:     123110
