WARNING: physical memory size is smaller than virtual memory size.

*** ChampSim Multicore Out-of-Order Simulator ***
Warmup Instructions: 25000000
Simulation Instructions: 25000000
Number of CPUs: 1
Page size: 4096

Off-chip DRAM Size: 4 GiB Channels: 1 Width: 64-bit Data Race: 800 MT/s
Heartbeat CPU 0 instructions: 10000000 cycles: 3018552 heartbeat IPC: 3.313 cumulative IPC: 3.313 (Simulation time: 00 hr 00 min 31 sec)
Heartbeat CPU 0 instructions: 20000000 cycles: 5880772 heartbeat IPC: 3.494 cumulative IPC: 3.401 (Simulation time: 00 hr 01 min 05 sec)
Warmup finished CPU 0 instructions: 25000002 cycles: 7240155 cumulative IPC: 3.453 (Simulation time: 00 hr 01 min 22 sec)
Warmup complete CPU 0 instructions: 25000002 cycles: 7240155 cumulative IPC: 3.453 (Simulation time: 00 hr 01 min 22 sec)
Heartbeat CPU 0 instructions: 30000000 cycles: 25076424 heartbeat IPC: 0.521 cumulative IPC: 0.2803 (Simulation time: 00 hr 03 min 14 sec)
Heartbeat CPU 0 instructions: 40000002 cycles: 47798655 heartbeat IPC: 0.4401 cumulative IPC: 0.3698 (Simulation time: 00 hr 05 min 31 sec)
Heartbeat CPU 0 instructions: 50000000 cycles: 72450952 heartbeat IPC: 0.4056 cumulative IPC: 0.3834 (Simulation time: 00 hr 07 min 36 sec)
Simulation finished CPU 0 instructions: 25000002 cycles: 65210799 cumulative IPC: 0.3834 (Simulation time: 00 hr 07 min 36 sec)
Simulation complete CPU 0 instructions: 25000002 cycles: 65210799 cumulative IPC: 0.3834 (Simulation time: 00 hr 07 min 36 sec)

ChampSim completed all CPUs

=== Simulation ===
CPU 0 runs ./traces/605.mcf_s-472B.champsimtrace.xz
Region of Interest Statistics

CPU 0 cumulative IPC: 0.3834 instructions: 25000002 cycles: 65210799
CPU 0 Branch Prediction Accuracy: 97.33% MPKI: 2.992 Average ROB Occupancy at Mispredict: 77.13
Branch type MPKI
BRANCH_DIRECT_JUMP: 0
BRANCH_INDIRECT: 0
BRANCH_CONDITIONAL: 2.99
BRANCH_DIRECT_CALL: 0
BRANCH_INDIRECT_CALL: 0
BRANCH_RETURN: 0

LLC TOTAL        ACCESS:    1899089 HIT:     596407 MISS:    1302682
LLC LOAD         ACCESS:     959254 HIT:     407293 MISS:     551961
LLC RFO          ACCESS:      54782 HIT:         38 MISS:      54744
LLC PREFETCH     ACCESS:     751761 HIT:     170669 MISS:     581092
LLC WRITE        ACCESS:     130096 HIT:      17914 MISS:     112182
LLC TRANSLATION  ACCESS:       3196 HIT:        493 MISS:       2703
LLC PREFETCH REQUESTED:          0 ISSUED:          0 USEFUL:          0 USELESS:          0
LLC AVERAGE MISS LATENCY: 622.7 cycles
cpu0_DTLB TOTAL        ACCESS:    7601001 HIT:    7432822 MISS:     168179
cpu0_DTLB LOAD         ACCESS:    7601001 HIT:    7432822 MISS:     168179
cpu0_DTLB RFO          ACCESS:          0 HIT:          0 MISS:          0
cpu0_DTLB PREFETCH     ACCESS:          0 HIT:          0 MISS:          0
cpu0_DTLB WRITE        ACCESS:          0 HIT:          0 MISS:          0
cpu0_DTLB TRANSLATION  ACCESS:          0 HIT:          0 MISS:          0
cpu0_DTLB PREFETCH REQUESTED:          0 ISSUED:          0 USEFUL:          0 USELESS:          0
cpu0_DTLB AVERAGE MISS LATENCY: 28.14 cycles
cpu0_ITLB TOTAL        ACCESS:          0 HIT:          0 MISS:          0
cpu0_ITLB LOAD         ACCESS:          0 HIT:          0 MISS:          0
cpu0_ITLB RFO          ACCESS:          0 HIT:          0 MISS:          0
cpu0_ITLB PREFETCH     ACCESS:          0 HIT:          0 MISS:          0
cpu0_ITLB WRITE        ACCESS:          0 HIT:          0 MISS:          0
cpu0_ITLB TRANSLATION  ACCESS:          0 HIT:          0 MISS:          0
cpu0_ITLB PREFETCH REQUESTED:          0 ISSUED:          0 USEFUL:          0 USELESS:          0
cpu0_ITLB AVERAGE MISS LATENCY: -nan cycles
cpu0_L1D TOTAL        ACCESS:   12548805 HIT:   10843040 MISS:    1705765
cpu0_L1D LOAD         ACCESS:    4858044 HIT:    3648792 MISS:    1209252
cpu0_L1D RFO          ACCESS:          0 HIT:          0 MISS:          0
cpu0_L1D PREFETCH     ACCESS:    1526401 HIT:    1302844 MISS:     223557
cpu0_L1D WRITE        ACCESS:    6133388 HIT:    5872064 MISS:     261324
cpu0_L1D TRANSLATION  ACCESS:      30972 HIT:      19340 MISS:      11632
cpu0_L1D PREFETCH REQUESTED:   30343950 ISSUED:    1526401 USEFUL:      11672 USELESS:     109601
cpu0_L1D AVERAGE MISS LATENCY: 371.2 cycles
cpu0_L1I TOTAL        ACCESS:          0 HIT:          0 MISS:          0
cpu0_L1I LOAD         ACCESS:          0 HIT:          0 MISS:          0
cpu0_L1I RFO          ACCESS:          0 HIT:          0 MISS:          0
cpu0_L1I PREFETCH     ACCESS:          0 HIT:          0 MISS:          0
cpu0_L1I WRITE        ACCESS:          0 HIT:          0 MISS:          0
cpu0_L1I TRANSLATION  ACCESS:          0 HIT:          0 MISS:          0
cpu0_L1I PREFETCH REQUESTED:          0 ISSUED:          0 USEFUL:          0 USELESS:          0
cpu0_L1I AVERAGE MISS LATENCY: -nan cycles
cpu0_L2C TOTAL        ACCESS:    2222120 HIT:     332751 MISS:    1889369
cpu0_L2C LOAD         ACCESS:    1116309 HIT:      99324 MISS:    1016985
cpu0_L2C RFO          ACCESS:      58833 HIT:       4051 MISS:      54782
cpu0_L2C PREFETCH     ACCESS:     875866 HIT:      62367 MISS:     813499
cpu0_L2C WRITE        ACCESS:     159489 HIT:     158581 MISS:        908
cpu0_L2C TRANSLATION  ACCESS:      11623 HIT:       8428 MISS:       3195
cpu0_L2C PREFETCH REQUESTED:     754613 ISSUED:     754613 USEFUL:     136060 USELESS:      25574
cpu0_L2C AVERAGE MISS LATENCY: 361.6 cycles
cpu0_STLB TOTAL        ACCESS:      59539 HIT:      28594 MISS:      30945
cpu0_STLB LOAD         ACCESS:      59539 HIT:      28594 MISS:      30945
cpu0_STLB RFO          ACCESS:          0 HIT:          0 MISS:          0
cpu0_STLB PREFETCH     ACCESS:          0 HIT:          0 MISS:          0
cpu0_STLB WRITE        ACCESS:          0 HIT:          0 MISS:          0
cpu0_STLB TRANSLATION  ACCESS:          0 HIT:          0 MISS:          0
cpu0_STLB PREFETCH REQUESTED:          0 ISSUED:          0 USEFUL:          0 USELESS:          0
cpu0_STLB AVERAGE MISS LATENCY: 249.6 cycles

DRAM Statistics

Channel 0 RQ ROW_BUFFER_HIT:     584972
  ROW_BUFFER_MISS:     361033
 AVG DBUS CONGESTED CYCLE: 3.909
WQ ROW_BUFFER_HIT: Channel 0 
  ROW_BUFFER_MISS:      16324
  FULL:     112162
