WARNING: physical memory size is smaller than virtual memory size.

*** ChampSim Multicore Out-of-Order Simulator ***
Warmup Instructions: 25000000
Simulation Instructions: 25000000
Number of CPUs: 1
Page size: 4096

Off-chip DRAM Size: 4 GiB Channels: 1 Width: 64-bit Data Race: 800 MT/s
Heartbeat CPU 0 instructions: 10000000 cycles: 2569732 heartbeat IPC: 3.891 cumulative IPC: 3.891 (Simulation time: 00 hr 00 min 31 sec)
Heartbeat CPU 0 instructions: 20000000 cycles: 5139130 heartbeat IPC: 3.892 cumulative IPC: 3.892 (Simulation time: 00 hr 01 min 00 sec)
Warmup finished CPU 0 instructions: 25000002 cycles: 6421520 cumulative IPC: 3.893 (Simulation time: 00 hr 01 min 15 sec)
Warmup complete CPU 0 instructions: 25000002 cycles: 6421520 cumulative IPC: 3.893 (Simulation time: 00 hr 01 min 15 sec)
Heartbeat CPU 0 instructions: 30000003 cycles: 19773861 heartbeat IPC: 0.6833 cumulative IPC: 0.3745 (Simulation time: 00 hr 02 min 21 sec)
Heartbeat CPU 0 instructions: 40000001 cycles: 46758278 heartbeat IPC: 0.3706 cumulative IPC: 0.3719 (Simulation time: 00 hr 04 min 32 sec)
Heartbeat CPU 0 instructions: 50000003 cycles: 74196049 heartbeat IPC: 0.3645 cumulative IPC: 0.3689 (Simulation time: 00 hr 06 min 53 sec)
Simulation finished CPU 0 instructions: 25000001 cycles: 67774530 cumulative IPC: 0.3689 (Simulation time: 00 hr 06 min 53 sec)
Simulation complete CPU 0 instructions: 25000001 cycles: 67774530 cumulative IPC: 0.3689 (Simulation time: 00 hr 06 min 53 sec)

ChampSim completed all CPUs

=== Simulation ===
CPU 0 runs ./traces/605.mcf_s-1152B.champsimtrace.xz
Region of Interest Statistics

CPU 0 cumulative IPC: 0.3689 instructions: 25000001 cycles: 67774530
CPU 0 Branch Prediction Accuracy: 85.61% MPKI: 35.89 Average ROB Occupancy at Mispredict: 11.25
Branch type MPKI
BRANCH_DIRECT_JUMP: 0.211
BRANCH_INDIRECT: 0
BRANCH_CONDITIONAL: 35.7
BRANCH_DIRECT_CALL: 0
BRANCH_INDIRECT_CALL: 0.00464
BRANCH_RETURN: 0

LLC TOTAL        ACCESS:    1863456 HIT:    1270037 MISS:     593419
LLC LOAD         ACCESS:     768202 HIT:     576292 MISS:     191910
LLC RFO          ACCESS:      75375 HIT:      75030 MISS:        345
LLC PREFETCH     ACCESS:     910602 HIT:     510836 MISS:     399766
LLC WRITE        ACCESS:     106344 HIT:     106299 MISS:         45
LLC TRANSLATION  ACCESS:       2933 HIT:       1580 MISS:       1353
LLC PREFETCH REQUESTED:          0 ISSUED:          0 USEFUL:          0 USELESS:          0
LLC AVERAGE MISS LATENCY: 291.8 cycles
cpu0_DTLB TOTAL        ACCESS:    7657691 HIT:    6904414 MISS:     753277
cpu0_DTLB LOAD         ACCESS:    7657691 HIT:    6904414 MISS:     753277
cpu0_DTLB RFO          ACCESS:          0 HIT:          0 MISS:          0
cpu0_DTLB PREFETCH     ACCESS:          0 HIT:          0 MISS:          0
cpu0_DTLB WRITE        ACCESS:          0 HIT:          0 MISS:          0
cpu0_DTLB TRANSLATION  ACCESS:          0 HIT:          0 MISS:          0
cpu0_DTLB PREFETCH REQUESTED:          0 ISSUED:          0 USEFUL:          0 USELESS:          0
cpu0_DTLB AVERAGE MISS LATENCY: 8.709 cycles
cpu0_ITLB TOTAL        ACCESS:      14175 HIT:      14175 MISS:          0
cpu0_ITLB LOAD         ACCESS:      14175 HIT:      14175 MISS:          0
cpu0_ITLB RFO          ACCESS:          0 HIT:          0 MISS:          0
cpu0_ITLB PREFETCH     ACCESS:          0 HIT:          0 MISS:          0
cpu0_ITLB WRITE        ACCESS:          0 HIT:          0 MISS:          0
cpu0_ITLB TRANSLATION  ACCESS:          0 HIT:          0 MISS:          0
cpu0_ITLB PREFETCH REQUESTED:          0 ISSUED:          0 USEFUL:          0 USELESS:          0
cpu0_ITLB AVERAGE MISS LATENCY: -nan cycles
cpu0_L1D TOTAL        ACCESS:   15857855 HIT:   12337729 MISS:    3520126
cpu0_L1D LOAD         ACCESS:    7122185 HIT:    5565790 MISS:    1556395
cpu0_L1D RFO          ACCESS:          0 HIT:          0 MISS:          0
cpu0_L1D PREFETCH     ACCESS:    6134994 HIT:    4459924 MISS:    1675070
cpu0_L1D WRITE        ACCESS:    2592483 HIT:    2308074 MISS:     284409
cpu0_L1D TRANSLATION  ACCESS:       8193 HIT:       3941 MISS:       4252
cpu0_L1D PREFETCH REQUESTED:    7779904 ISSUED:    6134994 USEFUL:     276879 USELESS:     756341
cpu0_L1D AVERAGE MISS LATENCY: 55.05 cycles
cpu0_L1I TOTAL        ACCESS:      16035 HIT:      16035 MISS:          0
cpu0_L1I LOAD         ACCESS:      16035 HIT:      16035 MISS:          0
cpu0_L1I RFO          ACCESS:          0 HIT:          0 MISS:          0
cpu0_L1I PREFETCH     ACCESS:          0 HIT:          0 MISS:          0
cpu0_L1I WRITE        ACCESS:          0 HIT:          0 MISS:          0
cpu0_L1I TRANSLATION  ACCESS:          0 HIT:          0 MISS:          0
cpu0_L1I PREFETCH REQUESTED:          0 ISSUED:          0 USEFUL:          0 USELESS:          0
cpu0_L1I AVERAGE MISS LATENCY: -nan cycles
cpu0_L2C TOTAL        ACCESS:    2472131 HIT:     657608 MISS:    1814523
cpu0_L2C LOAD         ACCESS:    1054347 HIT:     276661 MISS:     777686
cpu0_L2C RFO          ACCESS:      97561 HIT:      22186 MISS:      75375
cpu0_L2C PREFETCH     ACCESS:    1172238 HIT:     213955 MISS:     958283
cpu0_L2C WRITE        ACCESS:     143733 HIT:     143487 MISS:        246
cpu0_L2C TRANSLATION  ACCESS:       4252 HIT:       1319 MISS:       2933
cpu0_L2C PREFETCH REQUESTED:     138946 ISSUED:     138946 USEFUL:      46308 USELESS:       7251
cpu0_L2C AVERAGE MISS LATENCY: 112.4 cycles
cpu0_STLB TOTAL        ACCESS:     639442 HIT:     631313 MISS:       8129
cpu0_STLB LOAD         ACCESS:     639442 HIT:     631313 MISS:       8129
cpu0_STLB RFO          ACCESS:          0 HIT:          0 MISS:          0
cpu0_STLB PREFETCH     ACCESS:          0 HIT:          0 MISS:          0
cpu0_STLB WRITE        ACCESS:          0 HIT:          0 MISS:          0
cpu0_STLB TRANSLATION  ACCESS:          0 HIT:          0 MISS:          0
cpu0_STLB PREFETCH REQUESTED:          0 ISSUED:          0 USEFUL:          0 USELESS:          0
cpu0_STLB AVERAGE MISS LATENCY: 215.7 cycles

DRAM Statistics

Channel 0 RQ ROW_BUFFER_HIT:     185096
  ROW_BUFFER_MISS:     399950
 AVG DBUS CONGESTED CYCLE: 3.829
WQ ROW_BUFFER_HIT: Channel 0 
  ROW_BUFFER_MISS:       1700
  FULL:       1080
