WARNING: physical memory size is smaller than virtual memory size.

*** ChampSim Multicore Out-of-Order Simulator ***
Warmup Instructions: 25000000
Simulation Instructions: 25000000
Number of CPUs: 1
Page size: 4096

Off-chip DRAM Size: 4 GiB Channels: 1 Width: 64-bit Data Race: 800 MT/s
Heartbeat CPU 0 instructions: 10000003 cycles: 2591255 heartbeat IPC: 3.859 cumulative IPC: 3.859 (Simulation time: 00 hr 00 min 31 sec)
Heartbeat CPU 0 instructions: 20000003 cycles: 5188443 heartbeat IPC: 3.85 cumulative IPC: 3.855 (Simulation time: 00 hr 01 min 06 sec)
Warmup finished CPU 0 instructions: 25000000 cycles: 6487067 cumulative IPC: 3.854 (Simulation time: 00 hr 01 min 22 sec)
Warmup complete CPU 0 instructions: 25000000 cycles: 6487067 cumulative IPC: 3.854 (Simulation time: 00 hr 01 min 22 sec)
Heartbeat CPU 0 instructions: 30000000 cycles: 18349871 heartbeat IPC: 0.7598 cumulative IPC: 0.4215 (Simulation time: 00 hr 02 min 25 sec)
Heartbeat CPU 0 instructions: 40000001 cycles: 41705358 heartbeat IPC: 0.4282 cumulative IPC: 0.4259 (Simulation time: 00 hr 04 min 24 sec)
Heartbeat CPU 0 instructions: 50000001 cycles: 64119643 heartbeat IPC: 0.4461 cumulative IPC: 0.4338 (Simulation time: 00 hr 06 min 19 sec)
Simulation finished CPU 0 instructions: 25000001 cycles: 57632577 cumulative IPC: 0.4338 (Simulation time: 00 hr 06 min 19 sec)
Simulation complete CPU 0 instructions: 25000001 cycles: 57632577 cumulative IPC: 0.4338 (Simulation time: 00 hr 06 min 19 sec)

ChampSim completed all CPUs

=== Simulation ===
CPU 0 runs ./traces/605.mcf_s-665B.champsimtrace.xz
Region of Interest Statistics

CPU 0 cumulative IPC: 0.4338 instructions: 25000001 cycles: 57632577
CPU 0 Branch Prediction Accuracy: 85.71% MPKI: 35.61 Average ROB Occupancy at Mispredict: 11.81
Branch type MPKI
BRANCH_DIRECT_JUMP: 0.211
BRANCH_INDIRECT: 0
BRANCH_CONDITIONAL: 35.4
BRANCH_DIRECT_CALL: 0
BRANCH_INDIRECT_CALL: 0.00512
BRANCH_RETURN: 0

LLC TOTAL        ACCESS:    1304478 HIT:     874103 MISS:     430375
LLC LOAD         ACCESS:     501789 HIT:     356664 MISS:     145125
LLC RFO          ACCESS:      80173 HIT:      79856 MISS:        317
LLC PREFETCH     ACCESS:     613788 HIT:     330159 MISS:     283629
LLC WRITE        ACCESS:     105521 HIT:     105476 MISS:         45
LLC TRANSLATION  ACCESS:       3207 HIT:       1948 MISS:       1259
LLC PREFETCH REQUESTED:          0 ISSUED:          0 USEFUL:          0 USELESS:          0
LLC AVERAGE MISS LATENCY: 294.4 cycles
cpu0_DTLB TOTAL        ACCESS:    7781137 HIT:    7246514 MISS:     534623
cpu0_DTLB LOAD         ACCESS:    7781137 HIT:    7246514 MISS:     534623
cpu0_DTLB RFO          ACCESS:          0 HIT:          0 MISS:          0
cpu0_DTLB PREFETCH     ACCESS:          0 HIT:          0 MISS:          0
cpu0_DTLB WRITE        ACCESS:          0 HIT:          0 MISS:          0
cpu0_DTLB TRANSLATION  ACCESS:          0 HIT:          0 MISS:          0
cpu0_DTLB PREFETCH REQUESTED:          0 ISSUED:          0 USEFUL:          0 USELESS:          0
cpu0_DTLB AVERAGE MISS LATENCY: 8.581 cycles
cpu0_ITLB TOTAL        ACCESS:      10093 HIT:      10093 MISS:          0
cpu0_ITLB LOAD         ACCESS:      10093 HIT:      10093 MISS:          0
cpu0_ITLB RFO          ACCESS:          0 HIT:          0 MISS:          0
cpu0_ITLB PREFETCH     ACCESS:          0 HIT:          0 MISS:          0
cpu0_ITLB WRITE        ACCESS:          0 HIT:          0 MISS:          0
cpu0_ITLB TRANSLATION  ACCESS:          0 HIT:          0 MISS:          0
cpu0_ITLB PREFETCH REQUESTED:          0 ISSUED:          0 USEFUL:          0 USELESS:          0
cpu0_ITLB AVERAGE MISS LATENCY: -nan cycles
cpu0_L1D TOTAL        ACCESS:   16102533 HIT:   13488650 MISS:    2613883
cpu0_L1D LOAD         ACCESS:    7060654 HIT:    5957391 MISS:    1103263
cpu0_L1D RFO          ACCESS:          0 HIT:          0 MISS:          0
cpu0_L1D PREFETCH     ACCESS:    6162230 HIT:    4955661 MISS:    1206569
cpu0_L1D WRITE        ACCESS:    2873003 HIT:    2573207 MISS:     299796
cpu0_L1D TRANSLATION  ACCESS:       6646 HIT:       2391 MISS:       4255
cpu0_L1D PREFETCH REQUESTED:    7163006 ISSUED:    6162222 USEFUL:     205882 USELESS:     584268
cpu0_L1D AVERAGE MISS LATENCY: 56.03 cycles
cpu0_L1I TOTAL        ACCESS:      11241 HIT:      11241 MISS:          0
cpu0_L1I LOAD         ACCESS:      11241 HIT:      11241 MISS:          0
cpu0_L1I RFO          ACCESS:          0 HIT:          0 MISS:          0
cpu0_L1I PREFETCH     ACCESS:          0 HIT:          0 MISS:          0
cpu0_L1I WRITE        ACCESS:          0 HIT:          0 MISS:          0
cpu0_L1I TRANSLATION  ACCESS:          0 HIT:          0 MISS:          0
cpu0_L1I PREFETCH REQUESTED:          0 ISSUED:          0 USEFUL:          0 USELESS:          0
cpu0_L1I AVERAGE MISS LATENCY: -nan cycles
cpu0_L2C TOTAL        ACCESS:    1949721 HIT:     724228 MISS:    1225493
cpu0_L2C LOAD         ACCESS:     810998 HIT:     304566 MISS:     506432
cpu0_L2C RFO          ACCESS:     104304 HIT:      24131 MISS:      80173
cpu0_L2C PREFETCH     ACCESS:     878712 HIT:     243204 MISS:     635508
cpu0_L2C WRITE        ACCESS:     151453 HIT:     151280 MISS:        173
cpu0_L2C TRANSLATION  ACCESS:       4254 HIT:       1047 MISS:       3207
cpu0_L2C PREFETCH REQUESTED:      88518 ISSUED:      88518 USEFUL:      31081 USELESS:       7409
cpu0_L2C AVERAGE MISS LATENCY: 121.9 cycles
cpu0_STLB TOTAL        ACCESS:     444535 HIT:     437925 MISS:       6610
cpu0_STLB LOAD         ACCESS:     444535 HIT:     437925 MISS:       6610
cpu0_STLB RFO          ACCESS:          0 HIT:          0 MISS:          0
cpu0_STLB PREFETCH     ACCESS:          0 HIT:          0 MISS:          0
cpu0_STLB WRITE        ACCESS:          0 HIT:          0 MISS:          0
cpu0_STLB TRANSLATION  ACCESS:          0 HIT:          0 MISS:          0
cpu0_STLB PREFETCH REQUESTED:          0 ISSUED:          0 USEFUL:          0 USELESS:          0
cpu0_STLB AVERAGE MISS LATENCY: 187.4 cycles

DRAM Statistics

Channel 0 RQ ROW_BUFFER_HIT:      84268
  ROW_BUFFER_MISS:     345029
 AVG DBUS CONGESTED CYCLE: 3.853
WQ ROW_BUFFER_HIT: Channel 0 
  ROW_BUFFER_MISS:       1051
  FULL:       1269
