WARNING: physical memory size is smaller than virtual memory size.

*** ChampSim Multicore Out-of-Order Simulator ***
Warmup Instructions: 25000000
Simulation Instructions: 25000000
Number of CPUs: 1
Page size: 4096

Off-chip DRAM Size: 4 GiB Channels: 1 Width: 64-bit Data Race: 800 MT/s
Heartbeat CPU 0 instructions: 10000003 cycles: 2500090 heartbeat IPC: 4 cumulative IPC: 4 (Simulation time: 00 hr 00 min 35 sec)
Heartbeat CPU 0 instructions: 20000003 cycles: 5000090 heartbeat IPC: 4 cumulative IPC: 4 (Simulation time: 00 hr 01 min 12 sec)
Warmup finished CPU 0 instructions: 25000003 cycles: 6250091 cumulative IPC: 4 (Simulation time: 00 hr 01 min 32 sec)
Warmup complete CPU 0 instructions: 25000003 cycles: 6250091 cumulative IPC: 4 (Simulation time: 00 hr 01 min 32 sec)
Heartbeat CPU 0 instructions: 30000002 cycles: 31228892 heartbeat IPC: 0.3813 cumulative IPC: 0.2002 (Simulation time: 00 hr 04 min 08 sec)
Heartbeat CPU 0 instructions: 40000000 cycles: 82988590 heartbeat IPC: 0.1932 cumulative IPC: 0.1955 (Simulation time: 00 hr 08 min 03 sec)
Heartbeat CPU 0 instructions: 50000002 cycles: 135225166 heartbeat IPC: 0.1914 cumulative IPC: 0.1938 (Simulation time: 00 hr 10 min 58 sec)
Simulation finished CPU 0 instructions: 25000003 cycles: 128975077 cumulative IPC: 0.1938 (Simulation time: 00 hr 10 min 58 sec)
Simulation complete CPU 0 instructions: 25000003 cycles: 128975077 cumulative IPC: 0.1938 (Simulation time: 00 hr 10 min 58 sec)

ChampSim completed all CPUs

=== Simulation ===
CPU 0 runs ./traces/605.mcf_s-1536B.champsimtrace.xz
Region of Interest Statistics

CPU 0 cumulative IPC: 0.1938 instructions: 25000003 cycles: 128975077
CPU 0 Branch Prediction Accuracy: 99.97% MPKI: 0.0528 Average ROB Occupancy at Mispredict: 288.7
Branch type MPKI
BRANCH_DIRECT_JUMP: 0
BRANCH_INDIRECT: 0
BRANCH_CONDITIONAL: 0.0528
BRANCH_DIRECT_CALL: 0
BRANCH_INDIRECT_CALL: 0
BRANCH_RETURN: 0

LLC TOTAL        ACCESS:    2869159 HIT:    1682001 MISS:    1187158
LLC LOAD         ACCESS:     932481 HIT:     795585 MISS:     136896
LLC RFO          ACCESS:      69358 HIT:      66882 MISS:       2476
LLC PREFETCH     ACCESS:     747394 HIT:     169493 MISS:     577901
LLC WRITE        ACCESS:     554551 HIT:     554536 MISS:         15
LLC TRANSLATION  ACCESS:     565375 HIT:      95505 MISS:     469870
LLC PREFETCH REQUESTED:          0 ISSUED:          0 USEFUL:          0 USELESS:          0
LLC AVERAGE MISS LATENCY: 1076 cycles
cpu0_DTLB TOTAL        ACCESS:    4331402 HIT:    2894108 MISS:    1437294
cpu0_DTLB LOAD         ACCESS:    4331402 HIT:    2894108 MISS:    1437294
cpu0_DTLB RFO          ACCESS:          0 HIT:          0 MISS:          0
cpu0_DTLB PREFETCH     ACCESS:          0 HIT:          0 MISS:          0
cpu0_DTLB WRITE        ACCESS:          0 HIT:          0 MISS:          0
cpu0_DTLB TRANSLATION  ACCESS:          0 HIT:          0 MISS:          0
cpu0_DTLB PREFETCH REQUESTED:          0 ISSUED:          0 USEFUL:          0 USELESS:          0
cpu0_DTLB AVERAGE MISS LATENCY: 368.7 cycles
cpu0_ITLB TOTAL        ACCESS:          0 HIT:          0 MISS:          0
cpu0_ITLB LOAD         ACCESS:          0 HIT:          0 MISS:          0
cpu0_ITLB RFO          ACCESS:          0 HIT:          0 MISS:          0
cpu0_ITLB PREFETCH     ACCESS:          0 HIT:          0 MISS:          0
cpu0_ITLB WRITE        ACCESS:          0 HIT:          0 MISS:          0
cpu0_ITLB TRANSLATION  ACCESS:          0 HIT:          0 MISS:          0
cpu0_ITLB PREFETCH REQUESTED:          0 ISSUED:          0 USEFUL:          0 USELESS:          0
cpu0_ITLB AVERAGE MISS LATENCY: -nan cycles
cpu0_L1D TOTAL        ACCESS:   10056212 HIT:    5362790 MISS:    4693422
cpu0_L1D LOAD         ACCESS:    4143623 HIT:    2169962 MISS:    1973661
cpu0_L1D RFO          ACCESS:          0 HIT:          0 MISS:          0
cpu0_L1D PREFETCH     ACCESS:    4211660 HIT:    2162900 MISS:    2048760
cpu0_L1D WRITE        ACCESS:    1034060 HIT:     957583 MISS:      76477
cpu0_L1D TRANSLATION  ACCESS:     666869 HIT:      72345 MISS:     594524
cpu0_L1D PREFETCH REQUESTED:    5549200 ISSUED:    4211658 USEFUL:       3310 USELESS:     960336
cpu0_L1D AVERAGE MISS LATENCY: 286.2 cycles
cpu0_L1I TOTAL        ACCESS:          0 HIT:          0 MISS:          0
cpu0_L1I LOAD         ACCESS:          0 HIT:          0 MISS:          0
cpu0_L1I RFO          ACCESS:          0 HIT:          0 MISS:          0
cpu0_L1I PREFETCH     ACCESS:          0 HIT:          0 MISS:          0
cpu0_L1I WRITE        ACCESS:          0 HIT:          0 MISS:          0
cpu0_L1I TRANSLATION  ACCESS:          0 HIT:          0 MISS:          0
cpu0_L1I PREFETCH REQUESTED:          0 ISSUED:          0 USEFUL:          0 USELESS:          0
cpu0_L1I AVERAGE MISS LATENCY: -nan cycles
cpu0_L2C TOTAL        ACCESS:    3523699 HIT:    1202349 MISS:    2321350
cpu0_L2C LOAD         ACCESS:    1233803 HIT:     299556 MISS:     934247
cpu0_L2C RFO          ACCESS:      76124 HIT:       6766 MISS:      69358
cpu0_L2C PREFETCH     ACCESS:    1060321 HIT:     307954 MISS:     752367
cpu0_L2C WRITE        ACCESS:     561120 HIT:     561118 MISS:          2
cpu0_L2C TRANSLATION  ACCESS:     592331 HIT:      26955 MISS:     565376
cpu0_L2C PREFETCH REQUESTED:      96683 ISSUED:      96683 USEFUL:      21683 USELESS:      27510
cpu0_L2C AVERAGE MISS LATENCY: 570.1 cycles
cpu0_STLB TOTAL        ACCESS:     663715 HIT:     101691 MISS:     562024
cpu0_STLB LOAD         ACCESS:     663715 HIT:     101691 MISS:     562024
cpu0_STLB RFO          ACCESS:          0 HIT:          0 MISS:          0
cpu0_STLB PREFETCH     ACCESS:          0 HIT:          0 MISS:          0
cpu0_STLB WRITE        ACCESS:          0 HIT:          0 MISS:          0
cpu0_STLB TRANSLATION  ACCESS:          0 HIT:          0 MISS:          0
cpu0_STLB PREFETCH REQUESTED:          0 ISSUED:          0 USEFUL:          0 USELESS:          0
cpu0_STLB AVERAGE MISS LATENCY: 945 cycles

DRAM Statistics

Channel 0 RQ ROW_BUFFER_HIT:      73552
  ROW_BUFFER_MISS:    1113185
 AVG DBUS CONGESTED CYCLE: 3.974
WQ ROW_BUFFER_HIT: Channel 0 
  ROW_BUFFER_MISS:       1623
  FULL:     554999
