WARNING: physical memory size is smaller than virtual memory size.

*** ChampSim Multicore Out-of-Order Simulator ***
Warmup Instructions: 25000000
Simulation Instructions: 25000000
Number of CPUs: 1
Page size: 4096

Off-chip DRAM Size: 4 GiB Channels: 1 Width: 64-bit Data Race: 800 MT/s
Heartbeat CPU 0 instructions: 10000000 cycles: 2699482 heartbeat IPC: 3.704 cumulative IPC: 3.704 (Simulation time: 00 hr 00 min 39 sec)
Heartbeat CPU 0 instructions: 20000001 cycles: 5400479 heartbeat IPC: 3.702 cumulative IPC: 3.703 (Simulation time: 00 hr 01 min 21 sec)
Warmup finished CPU 0 instructions: 25000002 cycles: 6750229 cumulative IPC: 3.704 (Simulation time: 00 hr 01 min 40 sec)
Warmup complete CPU 0 instructions: 25000002 cycles: 6750229 cumulative IPC: 3.704 (Simulation time: 00 hr 01 min 40 sec)
Heartbeat CPU 0 instructions: 30000003 cycles: 9096317 heartbeat IPC: 2.706 cumulative IPC: 2.131 (Simulation time: 00 hr 02 min 10 sec)
Heartbeat CPU 0 instructions: 40000003 cycles: 13784798 heartbeat IPC: 2.133 cumulative IPC: 2.132 (Simulation time: 00 hr 03 min 08 sec)
Heartbeat CPU 0 instructions: 50000003 cycles: 18462110 heartbeat IPC: 2.138 cumulative IPC: 2.135 (Simulation time: 00 hr 04 min 05 sec)
Simulation finished CPU 0 instructions: 25000001 cycles: 11711882 cumulative IPC: 2.135 (Simulation time: 00 hr 04 min 05 sec)
Simulation complete CPU 0 instructions: 25000001 cycles: 11711882 cumulative IPC: 2.135 (Simulation time: 00 hr 04 min 05 sec)

ChampSim completed all CPUs

=== Simulation ===
CPU 0 runs ./traces/607.cactuBSSN_s-4004B.champsimtrace.xz
Region of Interest Statistics

CPU 0 cumulative IPC: 2.135 instructions: 25000001 cycles: 11711882
CPU 0 Branch Prediction Accuracy: 91.83% MPKI: 0.728 Average ROB Occupancy at Mispredict: 300.6
Branch type MPKI
BRANCH_DIRECT_JUMP: 0
BRANCH_INDIRECT: 0
BRANCH_CONDITIONAL: 0.365
BRANCH_DIRECT_CALL: 0
BRANCH_INDIRECT_CALL: 0
BRANCH_RETURN: 0.363

LLC TOTAL        ACCESS:     261183 HIT:     188649 MISS:      72534
LLC LOAD         ACCESS:     118985 HIT:      88065 MISS:      30920
LLC RFO          ACCESS:      20691 HIT:       5991 MISS:      14700
LLC PREFETCH     ACCESS:      98898 HIT:      73168 MISS:      25730
LLC WRITE        ACCESS:      21122 HIT:      20934 MISS:        188
LLC TRANSLATION  ACCESS:       1487 HIT:        491 MISS:        996
LLC PREFETCH REQUESTED:          0 ISSUED:          0 USEFUL:          0 USELESS:          0
LLC AVERAGE MISS LATENCY: 808.3 cycles
cpu0_DTLB TOTAL        ACCESS:    6211374 HIT:    5066514 MISS:    1144860
cpu0_DTLB LOAD         ACCESS:    6211374 HIT:    5066514 MISS:    1144860
cpu0_DTLB RFO          ACCESS:          0 HIT:          0 MISS:          0
cpu0_DTLB PREFETCH     ACCESS:          0 HIT:          0 MISS:          0
cpu0_DTLB WRITE        ACCESS:          0 HIT:          0 MISS:          0
cpu0_DTLB TRANSLATION  ACCESS:          0 HIT:          0 MISS:          0
cpu0_DTLB PREFETCH REQUESTED:          0 ISSUED:          0 USEFUL:          0 USELESS:          0
cpu0_DTLB AVERAGE MISS LATENCY: 6.904 cycles
cpu0_ITLB TOTAL        ACCESS:    3017492 HIT:    3017492 MISS:          0
cpu0_ITLB LOAD         ACCESS:    3017492 HIT:    3017492 MISS:          0
cpu0_ITLB RFO          ACCESS:          0 HIT:          0 MISS:          0
cpu0_ITLB PREFETCH     ACCESS:          0 HIT:          0 MISS:          0
cpu0_ITLB WRITE        ACCESS:          0 HIT:          0 MISS:          0
cpu0_ITLB TRANSLATION  ACCESS:          0 HIT:          0 MISS:          0
cpu0_ITLB PREFETCH REQUESTED:          0 ISSUED:          0 USEFUL:          0 USELESS:          0
cpu0_ITLB AVERAGE MISS LATENCY: -nan cycles
cpu0_L1D TOTAL        ACCESS:    9362012 HIT:    7064534 MISS:    2297478
cpu0_L1D LOAD         ACCESS:    6328825 HIT:    4386865 MISS:    1941960
cpu0_L1D RFO          ACCESS:          0 HIT:          0 MISS:          0
cpu0_L1D PREFETCH     ACCESS:    1014448 HIT:     852793 MISS:     161655
cpu0_L1D WRITE        ACCESS:    2017208 HIT:    1824861 MISS:     192347
cpu0_L1D TRANSLATION  ACCESS:       1531 HIT:         15 MISS:       1516
cpu0_L1D PREFETCH REQUESTED:    7329181 ISSUED:    1014447 USEFUL:      15513 USELESS:     111367
cpu0_L1D AVERAGE MISS LATENCY: 35.69 cycles
cpu0_L1I TOTAL        ACCESS:    4140044 HIT:    3050172 MISS:    1089872
cpu0_L1I LOAD         ACCESS:    4140044 HIT:    3050172 MISS:    1089872
cpu0_L1I RFO          ACCESS:          0 HIT:          0 MISS:          0
cpu0_L1I PREFETCH     ACCESS:          0 HIT:          0 MISS:          0
cpu0_L1I WRITE        ACCESS:          0 HIT:          0 MISS:          0
cpu0_L1I TRANSLATION  ACCESS:          0 HIT:          0 MISS:          0
cpu0_L1I PREFETCH REQUESTED:          0 ISSUED:          0 USEFUL:          0 USELESS:          0
cpu0_L1I AVERAGE MISS LATENCY: 6.65 cycles
cpu0_L2C TOTAL        ACCESS:    3146867 HIT:    2906294 MISS:     240573
cpu0_L2C LOAD         ACCESS:    2477031 HIT:    2358041 MISS:     118990
cpu0_L2C RFO          ACCESS:     167827 HIT:     146973 MISS:      20854
cpu0_L2C PREFETCH     ACCESS:     306595 HIT:     207438 MISS:      99157
cpu0_L2C WRITE        ACCESS:     193898 HIT:     193813 MISS:         85
cpu0_L2C TRANSLATION  ACCESS:       1516 HIT:         29 MISS:       1487
cpu0_L2C PREFETCH REQUESTED:     208391 ISSUED:     179703 USEFUL:      46614 USELESS:        251
cpu0_L2C AVERAGE MISS LATENCY: 263.7 cycles
cpu0_STLB TOTAL        ACCESS:     969271 HIT:     968253 MISS:       1018
cpu0_STLB LOAD         ACCESS:     969271 HIT:     968253 MISS:       1018
cpu0_STLB RFO          ACCESS:          0 HIT:          0 MISS:          0
cpu0_STLB PREFETCH     ACCESS:          0 HIT:          0 MISS:          0
cpu0_STLB WRITE        ACCESS:          0 HIT:          0 MISS:          0
cpu0_STLB TRANSLATION  ACCESS:          0 HIT:          0 MISS:          0
cpu0_STLB PREFETCH REQUESTED:          0 ISSUED:          0 USEFUL:          0 USELESS:          0
cpu0_STLB AVERAGE MISS LATENCY: 878.9 cycles

DRAM Statistics

Channel 0 RQ ROW_BUFFER_HIT:      32848
  ROW_BUFFER_MISS:      39495
 AVG DBUS CONGESTED CYCLE: 3.853
WQ ROW_BUFFER_HIT: Channel 0 
  ROW_BUFFER_MISS:       2023
  FULL:      12804
