WARNING: physical memory size is smaller than virtual memory size.

*** ChampSim Multicore Out-of-Order Simulator ***
Warmup Instructions: 25000000
Simulation Instructions: 25000000
Number of CPUs: 1
Page size: 4096

Off-chip DRAM Size: 4 GiB Channels: 1 Width: 64-bit Data Race: 800 MT/s
Heartbeat CPU 0 instructions: 10000002 cycles: 2700232 heartbeat IPC: 3.703 cumulative IPC: 3.703 (Simulation time: 00 hr 00 min 40 sec)
Heartbeat CPU 0 instructions: 20000002 cycles: 5397853 heartbeat IPC: 3.707 cumulative IPC: 3.705 (Simulation time: 00 hr 01 min 20 sec)
Warmup finished CPU 0 instructions: 25000002 cycles: 6746552 cumulative IPC: 3.706 (Simulation time: 00 hr 01 min 40 sec)
Warmup complete CPU 0 instructions: 25000002 cycles: 6746552 cumulative IPC: 3.706 (Simulation time: 00 hr 01 min 40 sec)
Heartbeat CPU 0 instructions: 30000000 cycles: 9041760 heartbeat IPC: 2.744 cumulative IPC: 2.178 (Simulation time: 00 hr 02 min 09 sec)
Heartbeat CPU 0 instructions: 40000001 cycles: 13672654 heartbeat IPC: 2.159 cumulative IPC: 2.166 (Simulation time: 00 hr 03 min 09 sec)
Heartbeat CPU 0 instructions: 50000000 cycles: 18340479 heartbeat IPC: 2.142 cumulative IPC: 2.156 (Simulation time: 00 hr 04 min 08 sec)
Simulation finished CPU 0 instructions: 25000002 cycles: 11593929 cumulative IPC: 2.156 (Simulation time: 00 hr 04 min 08 sec)
Simulation complete CPU 0 instructions: 25000002 cycles: 11593929 cumulative IPC: 2.156 (Simulation time: 00 hr 04 min 08 sec)

ChampSim completed all CPUs

=== Simulation ===
CPU 0 runs ./traces/607.cactuBSSN_s-2421B.champsimtrace.xz
Region of Interest Statistics

CPU 0 cumulative IPC: 2.156 instructions: 25000002 cycles: 11593929
CPU 0 Branch Prediction Accuracy: 91.83% MPKI: 0.728 Average ROB Occupancy at Mispredict: 304.3
Branch type MPKI
BRANCH_DIRECT_JUMP: 0
BRANCH_INDIRECT: 0
BRANCH_CONDITIONAL: 0.365
BRANCH_DIRECT_CALL: 0
BRANCH_INDIRECT_CALL: 0
BRANCH_RETURN: 0.363

LLC TOTAL        ACCESS:     258212 HIT:     186691 MISS:      71521
LLC LOAD         ACCESS:     112167 HIT:      81139 MISS:      31028
LLC RFO          ACCESS:      23477 HIT:       8752 MISS:      14725
LLC PREFETCH     ACCESS:      97075 HIT:      72370 MISS:      24705
LLC WRITE        ACCESS:      23993 HIT:      23917 MISS:         76
LLC TRANSLATION  ACCESS:       1500 HIT:        513 MISS:        987
LLC PREFETCH REQUESTED:          0 ISSUED:          0 USEFUL:          0 USELESS:          0
LLC AVERAGE MISS LATENCY: 800 cycles
cpu0_DTLB TOTAL        ACCESS:    6178538 HIT:    5041651 MISS:    1136887
cpu0_DTLB LOAD         ACCESS:    6178538 HIT:    5041651 MISS:    1136887
cpu0_DTLB RFO          ACCESS:          0 HIT:          0 MISS:          0
cpu0_DTLB PREFETCH     ACCESS:          0 HIT:          0 MISS:          0
cpu0_DTLB WRITE        ACCESS:          0 HIT:          0 MISS:          0
cpu0_DTLB TRANSLATION  ACCESS:          0 HIT:          0 MISS:          0
cpu0_DTLB PREFETCH REQUESTED:          0 ISSUED:          0 USEFUL:          0 USELESS:          0
cpu0_DTLB AVERAGE MISS LATENCY: 6.882 cycles
cpu0_ITLB TOTAL        ACCESS:    3010579 HIT:    3010579 MISS:          0
cpu0_ITLB LOAD         ACCESS:    3010579 HIT:    3010579 MISS:          0
cpu0_ITLB RFO          ACCESS:          0 HIT:          0 MISS:          0
cpu0_ITLB PREFETCH     ACCESS:          0 HIT:          0 MISS:          0
cpu0_ITLB WRITE        ACCESS:          0 HIT:          0 MISS:          0
cpu0_ITLB TRANSLATION  ACCESS:          0 HIT:          0 MISS:          0
cpu0_ITLB PREFETCH REQUESTED:          0 ISSUED:          0 USEFUL:          0 USELESS:          0
cpu0_ITLB AVERAGE MISS LATENCY: -nan cycles
cpu0_L1D TOTAL        ACCESS:    9317217 HIT:    7023727 MISS:    2293490
cpu0_L1D LOAD         ACCESS:    6305612 HIT:    4370859 MISS:    1934753
cpu0_L1D RFO          ACCESS:          0 HIT:          0 MISS:          0
cpu0_L1D PREFETCH     ACCESS:     992940 HIT:     838365 MISS:     154575
cpu0_L1D WRITE        ACCESS:    2017122 HIT:    1814474 MISS:     202648
cpu0_L1D TRANSLATION  ACCESS:       1543 HIT:         29 MISS:       1514
cpu0_L1D PREFETCH REQUESTED:    7275966 ISSUED:     992943 USEFUL:      14248 USELESS:     107751
cpu0_L1D AVERAGE MISS LATENCY: 35.07 cycles
cpu0_L1I TOTAL        ACCESS:    4135886 HIT:    3048081 MISS:    1087805
cpu0_L1I LOAD         ACCESS:    4135886 HIT:    3048081 MISS:    1087805
cpu0_L1I RFO          ACCESS:          0 HIT:          0 MISS:          0
cpu0_L1I PREFETCH     ACCESS:          0 HIT:          0 MISS:          0
cpu0_L1I WRITE        ACCESS:          0 HIT:          0 MISS:          0
cpu0_L1I TRANSLATION  ACCESS:          0 HIT:          0 MISS:          0
cpu0_L1I PREFETCH REQUESTED:          0 ISSUED:          0 USEFUL:          0 USELESS:          0
cpu0_L1I AVERAGE MISS LATENCY: 6.635 cycles
cpu0_L2C TOTAL        ACCESS:    3138880 HIT:    2903984 MISS:     234896
cpu0_L2C LOAD         ACCESS:    2471710 HIT:    2359538 MISS:     112172
cpu0_L2C RFO          ACCESS:     168000 HIT:     144112 MISS:      23888
cpu0_L2C PREFETCH     ACCESS:     305122 HIT:     207818 MISS:      97304
cpu0_L2C WRITE        ACCESS:     192534 HIT:     192502 MISS:         32
cpu0_L2C TRANSLATION  ACCESS:       1514 HIT:         14 MISS:       1500
cpu0_L2C PREFETCH REQUESTED:     222687 ISSUED:     183102 USEFUL:      46684 USELESS:         87
cpu0_L2C AVERAGE MISS LATENCY: 263.5 cycles
cpu0_STLB TOTAL        ACCESS:     961786 HIT:     960768 MISS:       1018
cpu0_STLB LOAD         ACCESS:     961786 HIT:     960768 MISS:       1018
cpu0_STLB RFO          ACCESS:          0 HIT:          0 MISS:          0
cpu0_STLB PREFETCH     ACCESS:          0 HIT:          0 MISS:          0
cpu0_STLB WRITE        ACCESS:          0 HIT:          0 MISS:          0
cpu0_STLB TRANSLATION  ACCESS:          0 HIT:          0 MISS:          0
cpu0_STLB PREFETCH REQUESTED:          0 ISSUED:          0 USEFUL:          0 USELESS:          0
cpu0_STLB AVERAGE MISS LATENCY: 864.3 cycles

DRAM Statistics

Channel 0 RQ ROW_BUFFER_HIT:      33436
  ROW_BUFFER_MISS:      37996
 AVG DBUS CONGESTED CYCLE: 3.855
WQ ROW_BUFFER_HIT: Channel 0 
  ROW_BUFFER_MISS:       2297
  FULL:      12465
