WARNING: physical memory size is smaller than virtual memory size.

*** ChampSim Multicore Out-of-Order Simulator ***
Warmup Instructions: 25000000
Simulation Instructions: 25000000
Number of CPUs: 1
Page size: 4096

Off-chip DRAM Size: 4 GiB Channels: 1 Width: 64-bit Data Race: 800 MT/s
Heartbeat CPU 0 instructions: 10000002 cycles: 2703915 heartbeat IPC: 3.698 cumulative IPC: 3.698 (Simulation time: 00 hr 00 min 34 sec)
Heartbeat CPU 0 instructions: 20000001 cycles: 5407814 heartbeat IPC: 3.698 cumulative IPC: 3.698 (Simulation time: 00 hr 01 min 08 sec)
Warmup finished CPU 0 instructions: 25000003 cycles: 6760235 cumulative IPC: 3.698 (Simulation time: 00 hr 01 min 27 sec)
Warmup complete CPU 0 instructions: 25000003 cycles: 6760235 cumulative IPC: 3.698 (Simulation time: 00 hr 01 min 27 sec)
Heartbeat CPU 0 instructions: 30000003 cycles: 9109289 heartbeat IPC: 2.702 cumulative IPC: 2.129 (Simulation time: 00 hr 01 min 54 sec)
Heartbeat CPU 0 instructions: 40000002 cycles: 13725277 heartbeat IPC: 2.166 cumulative IPC: 2.154 (Simulation time: 00 hr 02 min 48 sec)
Heartbeat CPU 0 instructions: 50000003 cycles: 18653107 heartbeat IPC: 2.029 cumulative IPC: 2.102 (Simulation time: 00 hr 03 min 44 sec)
Simulation finished CPU 0 instructions: 25000000 cycles: 11892873 cumulative IPC: 2.102 (Simulation time: 00 hr 03 min 44 sec)
Simulation complete CPU 0 instructions: 25000000 cycles: 11892873 cumulative IPC: 2.102 (Simulation time: 00 hr 03 min 44 sec)

ChampSim completed all CPUs

=== Simulation ===
CPU 0 runs ./traces/607.cactuBSSN_s-3477B.champsimtrace.xz
Region of Interest Statistics

CPU 0 cumulative IPC: 2.102 instructions: 25000000 cycles: 11892873
CPU 0 Branch Prediction Accuracy: 91.83% MPKI: 0.7242 Average ROB Occupancy at Mispredict: 292.2
Branch type MPKI
BRANCH_DIRECT_JUMP: 0
BRANCH_INDIRECT: 4e-05
BRANCH_CONDITIONAL: 0.363
BRANCH_DIRECT_CALL: 0
BRANCH_INDIRECT_CALL: 0
BRANCH_RETURN: 0.362

LLC TOTAL        ACCESS:     251703 HIT:     174750 MISS:      76953
LLC LOAD         ACCESS:     111977 HIT:      78664 MISS:      33313
LLC RFO          ACCESS:      19634 HIT:       5009 MISS:      14625
LLC PREFETCH     ACCESS:      98495 HIT:      70851 MISS:      27644
LLC WRITE        ACCESS:      19892 HIT:      19778 MISS:        114
LLC TRANSLATION  ACCESS:       1705 HIT:        448 MISS:       1257
LLC PREFETCH REQUESTED:          0 ISSUED:          0 USEFUL:          0 USELESS:          0
LLC AVERAGE MISS LATENCY: 801.9 cycles
cpu0_DTLB TOTAL        ACCESS:    6350643 HIT:    5244430 MISS:    1106213
cpu0_DTLB LOAD         ACCESS:    6350643 HIT:    5244430 MISS:    1106213
cpu0_DTLB RFO          ACCESS:          0 HIT:          0 MISS:          0
cpu0_DTLB PREFETCH     ACCESS:          0 HIT:          0 MISS:          0
cpu0_DTLB WRITE        ACCESS:          0 HIT:          0 MISS:          0
cpu0_DTLB TRANSLATION  ACCESS:          0 HIT:          0 MISS:          0
cpu0_DTLB PREFETCH REQUESTED:          0 ISSUED:          0 USEFUL:          0 USELESS:          0
cpu0_DTLB AVERAGE MISS LATENCY: 7.349 cycles
cpu0_ITLB TOTAL        ACCESS:    3032021 HIT:    3032021 MISS:          0
cpu0_ITLB LOAD         ACCESS:    3032021 HIT:    3032021 MISS:          0
cpu0_ITLB RFO          ACCESS:          0 HIT:          0 MISS:          0
cpu0_ITLB PREFETCH     ACCESS:          0 HIT:          0 MISS:          0
cpu0_ITLB WRITE        ACCESS:          0 HIT:          0 MISS:          0
cpu0_ITLB TRANSLATION  ACCESS:          0 HIT:          0 MISS:          0
cpu0_ITLB PREFETCH REQUESTED:          0 ISSUED:          0 USEFUL:          0 USELESS:          0
cpu0_ITLB AVERAGE MISS LATENCY: -nan cycles
cpu0_L1D TOTAL        ACCESS:    9396205 HIT:    7123561 MISS:    2272644
cpu0_L1D LOAD         ACCESS:    6330603 HIT:    4415211 MISS:    1915392
cpu0_L1D RFO          ACCESS:          0 HIT:          0 MISS:          0
cpu0_L1D PREFETCH     ACCESS:    1069325 HIT:     911039 MISS:     158286
cpu0_L1D WRITE        ACCESS:    1994508 HIT:    1797296 MISS:     197212
cpu0_L1D TRANSLATION  ACCESS:       1769 HIT:         15 MISS:       1754
cpu0_L1D PREFETCH REQUESTED:    7406648 ISSUED:    1069321 USEFUL:      14973 USELESS:     111266
cpu0_L1D AVERAGE MISS LATENCY: 36.69 cycles
cpu0_L1I TOTAL        ACCESS:    4173210 HIT:    2936055 MISS:    1237155
cpu0_L1I LOAD         ACCESS:    4173210 HIT:    2936055 MISS:    1237155
cpu0_L1I RFO          ACCESS:          0 HIT:          0 MISS:          0
cpu0_L1I PREFETCH     ACCESS:          0 HIT:          0 MISS:          0
cpu0_L1I WRITE        ACCESS:          0 HIT:          0 MISS:          0
cpu0_L1I TRANSLATION  ACCESS:          0 HIT:          0 MISS:          0
cpu0_L1I PREFETCH REQUESTED:          0 ISSUED:          0 USEFUL:          0 USELESS:          0
cpu0_L1I AVERAGE MISS LATENCY: 6.468 cycles
cpu0_L2C TOTAL        ACCESS:    3201719 HIT:    2969462 MISS:     232257
cpu0_L2C LOAD         ACCESS:    2531773 HIT:    2419789 MISS:     111984
cpu0_L2C RFO          ACCESS:     169723 HIT:     149980 MISS:      19743
cpu0_L2C PREFETCH     ACCESS:     305341 HIT:     206589 MISS:      98752
cpu0_L2C WRITE        ACCESS:     193133 HIT:     193060 MISS:         73
cpu0_L2C TRANSLATION  ACCESS:       1749 HIT:         44 MISS:       1705
cpu0_L2C PREFETCH REQUESTED:     205790 ISSUED:     179078 USEFUL:      45881 USELESS:        310
cpu0_L2C AVERAGE MISS LATENCY: 283.3 cycles
cpu0_STLB TOTAL        ACCESS:     948915 HIT:     947710 MISS:       1205
cpu0_STLB LOAD         ACCESS:     948915 HIT:     947710 MISS:       1205
cpu0_STLB RFO          ACCESS:          0 HIT:          0 MISS:          0
cpu0_STLB PREFETCH     ACCESS:          0 HIT:          0 MISS:          0
cpu0_STLB WRITE        ACCESS:          0 HIT:          0 MISS:          0
cpu0_STLB TRANSLATION  ACCESS:          0 HIT:          0 MISS:          0
cpu0_STLB PREFETCH REQUESTED:          0 ISSUED:          0 USEFUL:          0 USELESS:          0
cpu0_STLB AVERAGE MISS LATENCY: 1086 cycles

DRAM Statistics

Channel 0 RQ ROW_BUFFER_HIT:      35298
  ROW_BUFFER_MISS:      41534
 AVG DBUS CONGESTED CYCLE: 3.856
WQ ROW_BUFFER_HIT: Channel 0 
  ROW_BUFFER_MISS:       2264
  FULL:      12449
