WARNING: physical memory size is smaller than virtual memory size.

*** ChampSim Multicore Out-of-Order Simulator ***
Warmup Instructions: 25000000
Simulation Instructions: 25000000
Number of CPUs: 1
Page size: 4096

Off-chip DRAM Size: 4 GiB Channels: 1 Width: 64-bit Data Race: 800 MT/s
Heartbeat CPU 0 instructions: 10000001 cycles: 2957117 heartbeat IPC: 3.382 cumulative IPC: 3.382 (Simulation time: 00 hr 00 min 32 sec)
Heartbeat CPU 0 instructions: 20000003 cycles: 5912859 heartbeat IPC: 3.383 cumulative IPC: 3.382 (Simulation time: 00 hr 01 min 06 sec)
Warmup finished CPU 0 instructions: 25000003 cycles: 7390821 cumulative IPC: 3.383 (Simulation time: 00 hr 01 min 23 sec)
Warmup complete CPU 0 instructions: 25000003 cycles: 7390821 cumulative IPC: 3.383 (Simulation time: 00 hr 01 min 23 sec)
Heartbeat CPU 0 instructions: 30000001 cycles: 41035552 heartbeat IPC: 0.2847 cumulative IPC: 0.1486 (Simulation time: 00 hr 04 min 38 sec)
Heartbeat CPU 0 instructions: 40000002 cycles: 110864694 heartbeat IPC: 0.1432 cumulative IPC: 0.145 (Simulation time: 00 hr 11 min 22 sec)
Heartbeat CPU 0 instructions: 50000001 cycles: 179373629 heartbeat IPC: 0.146 cumulative IPC: 0.1454 (Simulation time: 00 hr 17 min 40 sec)
Simulation finished CPU 0 instructions: 25000002 cycles: 171982810 cumulative IPC: 0.1454 (Simulation time: 00 hr 17 min 40 sec)
Simulation complete CPU 0 instructions: 25000002 cycles: 171982810 cumulative IPC: 0.1454 (Simulation time: 00 hr 17 min 40 sec)

ChampSim completed all CPUs

=== Simulation ===
CPU 0 runs ./traces/619.lbm_s-4268B.champsimtrace.xz
Region of Interest Statistics

CPU 0 cumulative IPC: 0.1454 instructions: 25000002 cycles: 171982810
CPU 0 Branch Prediction Accuracy: 95.11% MPKI: 0.871 Average ROB Occupancy at Mispredict: 295
Branch type MPKI
BRANCH_DIRECT_JUMP: 0
BRANCH_INDIRECT: 0
BRANCH_CONDITIONAL: 0.871
BRANCH_DIRECT_CALL: 0
BRANCH_INDIRECT_CALL: 0
BRANCH_RETURN: 0

LLC TOTAL        ACCESS:    3430535 HIT:    2165691 MISS:    1264844
LLC LOAD         ACCESS:     207413 HIT:      14382 MISS:     193031
LLC RFO          ACCESS:    1544686 HIT:     664059 MISS:     880627
LLC PREFETCH     ACCESS:     132541 HIT:      13117 MISS:     119424
LLC WRITE        ACCESS:    1545360 HIT:    1473884 MISS:      71476
LLC TRANSLATION  ACCESS:        535 HIT:        249 MISS:        286
LLC PREFETCH REQUESTED:          0 ISSUED:          0 USEFUL:          0 USELESS:          0
LLC AVERAGE MISS LATENCY: 1927 cycles
cpu0_DTLB TOTAL        ACCESS:    5128624 HIT:    5072845 MISS:      55779
cpu0_DTLB LOAD         ACCESS:    5128624 HIT:    5072845 MISS:      55779
cpu0_DTLB RFO          ACCESS:          0 HIT:          0 MISS:          0
cpu0_DTLB PREFETCH     ACCESS:          0 HIT:          0 MISS:          0
cpu0_DTLB WRITE        ACCESS:          0 HIT:          0 MISS:          0
cpu0_DTLB TRANSLATION  ACCESS:          0 HIT:          0 MISS:          0
cpu0_DTLB PREFETCH REQUESTED:          0 ISSUED:          0 USEFUL:          0 USELESS:          0
cpu0_DTLB AVERAGE MISS LATENCY: 124.1 cycles
cpu0_ITLB TOTAL        ACCESS:          0 HIT:          0 MISS:          0
cpu0_ITLB LOAD         ACCESS:          0 HIT:          0 MISS:          0
cpu0_ITLB RFO          ACCESS:          0 HIT:          0 MISS:          0
cpu0_ITLB PREFETCH     ACCESS:          0 HIT:          0 MISS:          0
cpu0_ITLB WRITE        ACCESS:          0 HIT:          0 MISS:          0
cpu0_ITLB TRANSLATION  ACCESS:          0 HIT:          0 MISS:          0
cpu0_ITLB PREFETCH REQUESTED:          0 ISSUED:          0 USEFUL:          0 USELESS:          0
cpu0_ITLB AVERAGE MISS LATENCY: -nan cycles
cpu0_L1D TOTAL        ACCESS:    8017118 HIT:    4908398 MISS:    3108720
cpu0_L1D LOAD         ACCESS:    1719902 HIT:    1158350 MISS:     561552
cpu0_L1D RFO          ACCESS:          0 HIT:          0 MISS:          0
cpu0_L1D PREFETCH     ACCESS:    1717666 HIT:     965666 MISS:     752000
cpu0_L1D WRITE        ACCESS:    4561128 HIT:    2784358 MISS:    1776770
cpu0_L1D TRANSLATION  ACCESS:      18422 HIT:         24 MISS:      18398
cpu0_L1D PREFETCH REQUESTED:   18084707 ISSUED:    1717668 USEFUL:      71574 USELESS:       2636
cpu0_L1D AVERAGE MISS LATENCY: 715.6 cycles
cpu0_L1I TOTAL        ACCESS:          0 HIT:          0 MISS:          0
cpu0_L1I LOAD         ACCESS:          0 HIT:          0 MISS:          0
cpu0_L1I RFO          ACCESS:          0 HIT:          0 MISS:          0
cpu0_L1I PREFETCH     ACCESS:          0 HIT:          0 MISS:          0
cpu0_L1I WRITE        ACCESS:          0 HIT:          0 MISS:          0
cpu0_L1I TRANSLATION  ACCESS:          0 HIT:          0 MISS:          0
cpu0_L1I PREFETCH REQUESTED:          0 ISSUED:          0 USEFUL:          0 USELESS:          0
cpu0_L1I AVERAGE MISS LATENCY: -nan cycles
cpu0_L2C TOTAL        ACCESS:    3728468 HIT:    1839987 MISS:    1888481
cpu0_L2C LOAD         ACCESS:     223231 HIT:      15003 MISS:     208228
cpu0_L2C RFO          ACCESS:    1669743 HIT:     125058 MISS:    1544685
cpu0_L2C PREFETCH     ACCESS:     147345 HIT:      12312 MISS:     135033
cpu0_L2C WRITE        ACCESS:    1669751 HIT:    1669751 MISS:          0
cpu0_L2C TRANSLATION  ACCESS:      18398 HIT:      17863 MISS:        535
cpu0_L2C PREFETCH REQUESTED:      73135 ISSUED:      73135 USEFUL:      15964 USELESS:        434
cpu0_L2C AVERAGE MISS LATENCY: 1278 cycles
cpu0_STLB TOTAL        ACCESS:      33922 HIT:      15518 MISS:      18404
cpu0_STLB LOAD         ACCESS:      33922 HIT:      15518 MISS:      18404
cpu0_STLB RFO          ACCESS:          0 HIT:          0 MISS:          0
cpu0_STLB PREFETCH     ACCESS:          0 HIT:          0 MISS:          0
cpu0_STLB WRITE        ACCESS:          0 HIT:          0 MISS:          0
cpu0_STLB TRANSLATION  ACCESS:          0 HIT:          0 MISS:          0
cpu0_STLB PREFETCH REQUESTED:          0 ISSUED:          0 USEFUL:          0 USELESS:          0
cpu0_STLB AVERAGE MISS LATENCY: 454.2 cycles

DRAM Statistics

Channel 0 RQ ROW_BUFFER_HIT:      93938
  ROW_BUFFER_MISS:    1084057
 AVG DBUS CONGESTED CYCLE: 3.978
WQ ROW_BUFFER_HIT: Channel 0 
  ROW_BUFFER_MISS:      44652
  FULL:     848143
