WARNING: physical memory size is smaller than virtual memory size.

*** ChampSim Multicore Out-of-Order Simulator ***
Warmup Instructions: 25000000
Simulation Instructions: 25000000
Number of CPUs: 1
Page size: 4096

Off-chip DRAM Size: 4 GiB Channels: 1 Width: 64-bit Data Race: 800 MT/s
Heartbeat CPU 0 instructions: 10000000 cycles: 2963678 heartbeat IPC: 3.374 cumulative IPC: 3.374 (Simulation time: 00 hr 00 min 37 sec)
Heartbeat CPU 0 instructions: 20000000 cycles: 5907431 heartbeat IPC: 3.397 cumulative IPC: 3.386 (Simulation time: 00 hr 01 min 14 sec)
Warmup finished CPU 0 instructions: 25000003 cycles: 7392573 cumulative IPC: 3.382 (Simulation time: 00 hr 01 min 34 sec)
Warmup complete CPU 0 instructions: 25000003 cycles: 7392573 cumulative IPC: 3.382 (Simulation time: 00 hr 01 min 34 sec)
Heartbeat CPU 0 instructions: 30000001 cycles: 41743172 heartbeat IPC: 0.2791 cumulative IPC: 0.1456 (Simulation time: 00 hr 05 min 06 sec)
Heartbeat CPU 0 instructions: 40000002 cycles: 110777486 heartbeat IPC: 0.1449 cumulative IPC: 0.1451 (Simulation time: 00 hr 09 min 54 sec)
Heartbeat CPU 0 instructions: 50000001 cycles: 180877051 heartbeat IPC: 0.1427 cumulative IPC: 0.1441 (Simulation time: 00 hr 13 min 14 sec)
Simulation finished CPU 0 instructions: 25000002 cycles: 173484480 cumulative IPC: 0.1441 (Simulation time: 00 hr 13 min 14 sec)
Simulation complete CPU 0 instructions: 25000002 cycles: 173484480 cumulative IPC: 0.1441 (Simulation time: 00 hr 13 min 14 sec)

ChampSim completed all CPUs

=== Simulation ===
CPU 0 runs ./traces/619.lbm_s-2677B.champsimtrace.xz
Region of Interest Statistics

CPU 0 cumulative IPC: 0.1441 instructions: 25000002 cycles: 173484480
CPU 0 Branch Prediction Accuracy: 95.14% MPKI: 0.8683 Average ROB Occupancy at Mispredict: 294.1
Branch type MPKI
BRANCH_DIRECT_JUMP: 0
BRANCH_INDIRECT: 0
BRANCH_CONDITIONAL: 0.868
BRANCH_DIRECT_CALL: 0
BRANCH_INDIRECT_CALL: 0
BRANCH_RETURN: 0

LLC TOTAL        ACCESS:    3447430 HIT:    2175800 MISS:    1271630
LLC LOAD         ACCESS:     207875 HIT:      14508 MISS:     193367
LLC RFO          ACCESS:    1552455 HIT:     666040 MISS:     886415
LLC PREFETCH     ACCESS:     132846 HIT:      13095 MISS:     119751
LLC WRITE        ACCESS:    1553709 HIT:    1481883 MISS:      71826
LLC TRANSLATION  ACCESS:        545 HIT:        274 MISS:        271
LLC PREFETCH REQUESTED:          0 ISSUED:          0 USEFUL:          0 USELESS:          0
LLC AVERAGE MISS LATENCY: 1935 cycles
cpu0_DTLB TOTAL        ACCESS:    5134193 HIT:    5078280 MISS:      55913
cpu0_DTLB LOAD         ACCESS:    5134193 HIT:    5078280 MISS:      55913
cpu0_DTLB RFO          ACCESS:          0 HIT:          0 MISS:          0
cpu0_DTLB PREFETCH     ACCESS:          0 HIT:          0 MISS:          0
cpu0_DTLB WRITE        ACCESS:          0 HIT:          0 MISS:          0
cpu0_DTLB TRANSLATION  ACCESS:          0 HIT:          0 MISS:          0
cpu0_DTLB PREFETCH REQUESTED:          0 ISSUED:          0 USEFUL:          0 USELESS:          0
cpu0_DTLB AVERAGE MISS LATENCY: 126.2 cycles
cpu0_ITLB TOTAL        ACCESS:          0 HIT:          0 MISS:          0
cpu0_ITLB LOAD         ACCESS:          0 HIT:          0 MISS:          0
cpu0_ITLB RFO          ACCESS:          0 HIT:          0 MISS:          0
cpu0_ITLB PREFETCH     ACCESS:          0 HIT:          0 MISS:          0
cpu0_ITLB WRITE        ACCESS:          0 HIT:          0 MISS:          0
cpu0_ITLB TRANSLATION  ACCESS:          0 HIT:          0 MISS:          0
cpu0_ITLB PREFETCH REQUESTED:          0 ISSUED:          0 USEFUL:          0 USELESS:          0
cpu0_ITLB AVERAGE MISS LATENCY: -nan cycles
cpu0_L1D TOTAL        ACCESS:    8020644 HIT:    4900368 MISS:    3120276
cpu0_L1D LOAD         ACCESS:    1720570 HIT:    1153400 MISS:     567170
cpu0_L1D RFO          ACCESS:          0 HIT:          0 MISS:          0
cpu0_L1D PREFETCH     ACCESS:    1715657 HIT:     962867 MISS:     752790
cpu0_L1D WRITE        ACCESS:    4565923 HIT:    2784084 MISS:    1781839
cpu0_L1D TRANSLATION  ACCESS:      18494 HIT:         17 MISS:      18477
cpu0_L1D PREFETCH REQUESTED:   18273863 ISSUED:    1715657 USEFUL:      71762 USELESS:       2634
cpu0_L1D AVERAGE MISS LATENCY: 719.8 cycles
cpu0_L1I TOTAL        ACCESS:          0 HIT:          0 MISS:          0
cpu0_L1I LOAD         ACCESS:          0 HIT:          0 MISS:          0
cpu0_L1I RFO          ACCESS:          0 HIT:          0 MISS:          0
cpu0_L1I PREFETCH     ACCESS:          0 HIT:          0 MISS:          0
cpu0_L1I WRITE        ACCESS:          0 HIT:          0 MISS:          0
cpu0_L1I TRANSLATION  ACCESS:          0 HIT:          0 MISS:          0
cpu0_L1I PREFETCH REQUESTED:          0 ISSUED:          0 USEFUL:          0 USELESS:          0
cpu0_L1I AVERAGE MISS LATENCY: -nan cycles
cpu0_L2C TOTAL        ACCESS:    3741416 HIT:    1844220 MISS:    1897196
cpu0_L2C LOAD         ACCESS:     224119 HIT:      15413 MISS:     208706
cpu0_L2C RFO          ACCESS:    1675315 HIT:     122860 MISS:    1552455
cpu0_L2C PREFETCH     ACCESS:     148179 HIT:      12689 MISS:     135490
cpu0_L2C WRITE        ACCESS:    1675326 HIT:    1675326 MISS:          0
cpu0_L2C TRANSLATION  ACCESS:      18477 HIT:      17932 MISS:        545
cpu0_L2C PREFETCH REQUESTED:      73781 ISSUED:      73781 USEFUL:      16553 USELESS:        457
cpu0_L2C AVERAGE MISS LATENCY: 1284 cycles
cpu0_STLB TOTAL        ACCESS:      34048 HIT:      15572 MISS:      18476
cpu0_STLB LOAD         ACCESS:      34048 HIT:      15572 MISS:      18476
cpu0_STLB RFO          ACCESS:          0 HIT:          0 MISS:          0
cpu0_STLB PREFETCH     ACCESS:          0 HIT:          0 MISS:          0
cpu0_STLB WRITE        ACCESS:          0 HIT:          0 MISS:          0
cpu0_STLB TRANSLATION  ACCESS:          0 HIT:          0 MISS:          0
cpu0_STLB PREFETCH REQUESTED:          0 ISSUED:          0 USEFUL:          0 USELESS:          0
cpu0_STLB AVERAGE MISS LATENCY: 458.3 cycles

DRAM Statistics

Channel 0 RQ ROW_BUFFER_HIT:      90981
  ROW_BUFFER_MISS:    1093920
 AVG DBUS CONGESTED CYCLE: 3.979
WQ ROW_BUFFER_HIT: Channel 0 
  ROW_BUFFER_MISS:      44172
  FULL:     853925
