WARNING: physical memory size is smaller than virtual memory size.

*** ChampSim Multicore Out-of-Order Simulator ***
Warmup Instructions: 25000000
Simulation Instructions: 25000000
Number of CPUs: 1
Page size: 4096

Off-chip DRAM Size: 4 GiB Channels: 1 Width: 64-bit Data Race: 800 MT/s
Heartbeat CPU 0 instructions: 10000002 cycles: 2920508 heartbeat IPC: 3.424 cumulative IPC: 3.424 (Simulation time: 00 hr 00 min 38 sec)
Heartbeat CPU 0 instructions: 20000002 cycles: 5829628 heartbeat IPC: 3.437 cumulative IPC: 3.431 (Simulation time: 00 hr 01 min 14 sec)
Warmup finished CPU 0 instructions: 25000003 cycles: 7287319 cumulative IPC: 3.431 (Simulation time: 00 hr 01 min 33 sec)
Warmup complete CPU 0 instructions: 25000003 cycles: 7287319 cumulative IPC: 3.431 (Simulation time: 00 hr 01 min 33 sec)
Heartbeat CPU 0 instructions: 30000000 cycles: 37795097 heartbeat IPC: 0.3128 cumulative IPC: 0.1639 (Simulation time: 00 hr 04 min 47 sec)
Heartbeat CPU 0 instructions: 40000002 cycles: 97535594 heartbeat IPC: 0.1674 cumulative IPC: 0.1662 (Simulation time: 00 hr 11 min 08 sec)
Heartbeat CPU 0 instructions: 50000003 cycles: 154149984 heartbeat IPC: 0.1766 cumulative IPC: 0.1702 (Simulation time: 00 hr 17 min 07 sec)
Simulation finished CPU 0 instructions: 25000000 cycles: 146862666 cumulative IPC: 0.1702 (Simulation time: 00 hr 17 min 07 sec)
Simulation complete CPU 0 instructions: 25000000 cycles: 146862666 cumulative IPC: 0.1702 (Simulation time: 00 hr 17 min 07 sec)

ChampSim completed all CPUs

=== Simulation ===
CPU 0 runs ./traces/619.lbm_s-2676B.champsimtrace.xz
Region of Interest Statistics

CPU 0 cumulative IPC: 0.1702 instructions: 25000000 cycles: 146862666
CPU 0 Branch Prediction Accuracy: 96.12% MPKI: 0.6142 Average ROB Occupancy at Mispredict: 295.2
Branch type MPKI
BRANCH_DIRECT_JUMP: 0
BRANCH_INDIRECT: 0
BRANCH_CONDITIONAL: 0.614
BRANCH_DIRECT_CALL: 0
BRANCH_INDIRECT_CALL: 0
BRANCH_RETURN: 0

LLC TOTAL        ACCESS:    2876308 HIT:    1798409 MISS:    1077899
LLC LOAD         ACCESS:     166204 HIT:      10348 MISS:     155856
LLC RFO          ACCESS:    1295292 HIT:     544836 MISS:     750456
LLC PREFETCH     ACCESS:     117406 HIT:       9617 MISS:     107789
LLC WRITE        ACCESS:    1296808 HIT:    1233472 MISS:      63336
LLC TRANSLATION  ACCESS:        598 HIT:        136 MISS:        462
LLC PREFETCH REQUESTED:          0 ISSUED:          0 USEFUL:          0 USELESS:          0
LLC AVERAGE MISS LATENCY: 1896 cycles
cpu0_DTLB TOTAL        ACCESS:    4891571 HIT:    4844943 MISS:      46628
cpu0_DTLB LOAD         ACCESS:    4891571 HIT:    4844943 MISS:      46628
cpu0_DTLB RFO          ACCESS:          0 HIT:          0 MISS:          0
cpu0_DTLB PREFETCH     ACCESS:          0 HIT:          0 MISS:          0
cpu0_DTLB WRITE        ACCESS:          0 HIT:          0 MISS:          0
cpu0_DTLB TRANSLATION  ACCESS:          0 HIT:          0 MISS:          0
cpu0_DTLB PREFETCH REQUESTED:          0 ISSUED:          0 USEFUL:          0 USELESS:          0
cpu0_DTLB AVERAGE MISS LATENCY: 123.5 cycles
cpu0_ITLB TOTAL        ACCESS:          0 HIT:          0 MISS:          0
cpu0_ITLB LOAD         ACCESS:          0 HIT:          0 MISS:          0
cpu0_ITLB RFO          ACCESS:          0 HIT:          0 MISS:          0
cpu0_ITLB PREFETCH     ACCESS:          0 HIT:          0 MISS:          0
cpu0_ITLB WRITE        ACCESS:          0 HIT:          0 MISS:          0
cpu0_ITLB TRANSLATION  ACCESS:          0 HIT:          0 MISS:          0
cpu0_ITLB PREFETCH REQUESTED:          0 ISSUED:          0 USEFUL:          0 USELESS:          0
cpu0_ITLB AVERAGE MISS LATENCY: -nan cycles
cpu0_L1D TOTAL        ACCESS:    7783853 HIT:    5053713 MISS:    2730140
cpu0_L1D LOAD         ACCESS:    1719362 HIT:    1221493 MISS:     497869
cpu0_L1D RFO          ACCESS:          0 HIT:          0 MISS:          0
cpu0_L1D PREFETCH     ACCESS:    1719321 HIT:    1008064 MISS:     711257
cpu0_L1D WRITE        ACCESS:    4329513 HIT:    2824136 MISS:    1505377
cpu0_L1D TRANSLATION  ACCESS:      15657 HIT:         20 MISS:      15637
cpu0_L1D PREFETCH REQUESTED:   13768745 ISSUED:    1719323 USEFUL:      66050 USELESS:       2198
cpu0_L1D AVERAGE MISS LATENCY: 683.9 cycles
cpu0_L1I TOTAL        ACCESS:          0 HIT:          0 MISS:          0
cpu0_L1I LOAD         ACCESS:          0 HIT:          0 MISS:          0
cpu0_L1I RFO          ACCESS:          0 HIT:          0 MISS:          0
cpu0_L1I PREFETCH     ACCESS:          0 HIT:          0 MISS:          0
cpu0_L1I WRITE        ACCESS:          0 HIT:          0 MISS:          0
cpu0_L1I TRANSLATION  ACCESS:          0 HIT:          0 MISS:          0
cpu0_L1I PREFETCH REQUESTED:          0 ISSUED:          0 USEFUL:          0 USELESS:          0
cpu0_L1I AVERAGE MISS LATENCY: -nan cycles
cpu0_L2C TOTAL        ACCESS:    3167301 HIT:    1584836 MISS:    1582465
cpu0_L2C LOAD         ACCESS:     184301 HIT:      17393 MISS:     166908
cpu0_L2C RFO          ACCESS:    1415394 HIT:     120101 MISS:    1295293
cpu0_L2C PREFETCH     ACCESS:     136576 HIT:      16910 MISS:     119666
cpu0_L2C WRITE        ACCESS:    1415393 HIT:    1415393 MISS:          0
cpu0_L2C TRANSLATION  ACCESS:      15637 HIT:      15039 MISS:        598
cpu0_L2C PREFETCH REQUESTED:      68327 ISSUED:      68327 USEFUL:      18396 USELESS:        397
cpu0_L2C AVERAGE MISS LATENCY: 1283 cycles
cpu0_STLB TOTAL        ACCESS:      28825 HIT:      13183 MISS:      15642
cpu0_STLB LOAD         ACCESS:      28825 HIT:      13183 MISS:      15642
cpu0_STLB RFO          ACCESS:          0 HIT:          0 MISS:          0
cpu0_STLB PREFETCH     ACCESS:          0 HIT:          0 MISS:          0
cpu0_STLB WRITE        ACCESS:          0 HIT:          0 MISS:          0
cpu0_STLB TRANSLATION  ACCESS:          0 HIT:          0 MISS:          0
cpu0_STLB PREFETCH REQUESTED:          0 ISSUED:          0 USEFUL:          0 USELESS:          0
cpu0_STLB AVERAGE MISS LATENCY: 452.8 cycles

DRAM Statistics

Channel 0 RQ ROW_BUFFER_HIT:      79755
  ROW_BUFFER_MISS:     923709
 AVG DBUS CONGESTED CYCLE: 3.979
WQ ROW_BUFFER_HIT: Channel 0 
  ROW_BUFFER_MISS:      36726
  FULL:     728734
