WARNING: physical memory size is smaller than virtual memory size.

*** ChampSim Multicore Out-of-Order Simulator ***
Warmup Instructions: 25000000
Simulation Instructions: 25000000
Number of CPUs: 1
Page size: 4096

Off-chip DRAM Size: 4 GiB Channels: 1 Width: 64-bit Data Race: 800 MT/s
Heartbeat CPU 0 instructions: 10000002 cycles: 2503345 heartbeat IPC: 3.995 cumulative IPC: 3.995 (Simulation time: 00 hr 00 min 33 sec)
Heartbeat CPU 0 instructions: 20000002 cycles: 5007322 heartbeat IPC: 3.994 cumulative IPC: 3.994 (Simulation time: 00 hr 01 min 06 sec)
Warmup finished CPU 0 instructions: 25000003 cycles: 6259772 cumulative IPC: 3.994 (Simulation time: 00 hr 01 min 23 sec)
Warmup complete CPU 0 instructions: 25000003 cycles: 6259772 cumulative IPC: 3.994 (Simulation time: 00 hr 01 min 23 sec)
Heartbeat CPU 0 instructions: 30000003 cycles: 20012805 heartbeat IPC: 0.6664 cumulative IPC: 0.3636 (Simulation time: 00 hr 02 min 37 sec)
Heartbeat CPU 0 instructions: 40000001 cycles: 48244365 heartbeat IPC: 0.3542 cumulative IPC: 0.3573 (Simulation time: 00 hr 05 min 11 sec)
Heartbeat CPU 0 instructions: 50000000 cycles: 76778245 heartbeat IPC: 0.3505 cumulative IPC: 0.3545 (Simulation time: 00 hr 07 min 43 sec)
Simulation finished CPU 0 instructions: 25000000 cycles: 70518485 cumulative IPC: 0.3545 (Simulation time: 00 hr 07 min 43 sec)
Simulation complete CPU 0 instructions: 25000000 cycles: 70518485 cumulative IPC: 0.3545 (Simulation time: 00 hr 07 min 43 sec)

ChampSim completed all CPUs

=== Simulation ===
CPU 0 runs ./traces/620.omnetpp_s-141B.champsimtrace.xz
Region of Interest Statistics

CPU 0 cumulative IPC: 0.3545 instructions: 25000000 cycles: 70518485
CPU 0 Branch Prediction Accuracy: 91.43% MPKI: 18.03 Average ROB Occupancy at Mispredict: 50.27
Branch type MPKI
BRANCH_DIRECT_JUMP: 0.836
BRANCH_INDIRECT: 0.351
BRANCH_CONDITIONAL: 15.5
BRANCH_DIRECT_CALL: 0.00252
BRANCH_INDIRECT_CALL: 0.858
BRANCH_RETURN: 0.445

LLC TOTAL        ACCESS:     914636 HIT:     389497 MISS:     525139
LLC LOAD         ACCESS:     297141 HIT:      93860 MISS:     203281
LLC RFO          ACCESS:      30661 HIT:      11686 MISS:      18975
LLC PREFETCH     ACCESS:     266329 HIT:      73805 MISS:     192524
LLC WRITE        ACCESS:     198917 HIT:     196425 MISS:       2492
LLC TRANSLATION  ACCESS:     121588 HIT:      13721 MISS:     107867
LLC PREFETCH REQUESTED:          0 ISSUED:          0 USEFUL:          0 USELESS:          0
LLC AVERAGE MISS LATENCY: 386.4 cycles
cpu0_DTLB TOTAL        ACCESS:    8046295 HIT:    7410580 MISS:     635715
cpu0_DTLB LOAD         ACCESS:    8046295 HIT:    7410580 MISS:     635715
cpu0_DTLB RFO          ACCESS:          0 HIT:          0 MISS:          0
cpu0_DTLB PREFETCH     ACCESS:          0 HIT:          0 MISS:          0
cpu0_DTLB WRITE        ACCESS:          0 HIT:          0 MISS:          0
cpu0_DTLB TRANSLATION  ACCESS:          0 HIT:          0 MISS:          0
cpu0_DTLB PREFETCH REQUESTED:          0 ISSUED:          0 USEFUL:          0 USELESS:          0
cpu0_DTLB AVERAGE MISS LATENCY: 83.23 cycles
cpu0_ITLB TOTAL        ACCESS:    1966087 HIT:    1910080 MISS:      56007
cpu0_ITLB LOAD         ACCESS:    1966087 HIT:    1910080 MISS:      56007
cpu0_ITLB RFO          ACCESS:          0 HIT:          0 MISS:          0
cpu0_ITLB PREFETCH     ACCESS:          0 HIT:          0 MISS:          0
cpu0_ITLB WRITE        ACCESS:          0 HIT:          0 MISS:          0
cpu0_ITLB TRANSLATION  ACCESS:          0 HIT:          0 MISS:          0
cpu0_ITLB PREFETCH REQUESTED:          0 ISSUED:          0 USEFUL:          0 USELESS:          0
cpu0_ITLB AVERAGE MISS LATENCY: 4.721 cycles
cpu0_L1D TOTAL        ACCESS:   15141618 HIT:   13461536 MISS:    1680082
cpu0_L1D LOAD         ACCESS:    5667439 HIT:    4976153 MISS:     691286
cpu0_L1D RFO          ACCESS:          0 HIT:          0 MISS:          0
cpu0_L1D PREFETCH     ACCESS:    4707716 HIT:    4020808 MISS:     686908
cpu0_L1D WRITE        ACCESS:    4591639 HIT:    4450646 MISS:     140993
cpu0_L1D TRANSLATION  ACCESS:     174824 HIT:      13929 MISS:     160895
cpu0_L1D PREFETCH REQUESTED:    5777512 ISSUED:    4707708 USEFUL:      96594 USELESS:     317599
cpu0_L1D AVERAGE MISS LATENCY: 130.8 cycles
cpu0_L1I TOTAL        ACCESS:    2152456 HIT:    2134294 MISS:      18162
cpu0_L1I LOAD         ACCESS:    2152456 HIT:    2134294 MISS:      18162
cpu0_L1I RFO          ACCESS:          0 HIT:          0 MISS:          0
cpu0_L1I PREFETCH     ACCESS:          0 HIT:          0 MISS:          0
cpu0_L1I WRITE        ACCESS:          0 HIT:          0 MISS:          0
cpu0_L1I TRANSLATION  ACCESS:          0 HIT:          0 MISS:          0
cpu0_L1I PREFETCH REQUESTED:          0 ISSUED:          0 USEFUL:          0 USELESS:          0
cpu0_L1I AVERAGE MISS LATENCY: 25.15 cycles
cpu0_L2C TOTAL        ACCESS:    1373485 HIT:     656392 MISS:     717093
cpu0_L2C LOAD         ACCESS:     480454 HIT:     183311 MISS:     297143
cpu0_L2C RFO          ACCESS:      40064 HIT:       9403 MISS:      30661
cpu0_L2C PREFETCH     ACCESS:     418089 HIT:     151745 MISS:     266344
cpu0_L2C WRITE        ACCESS:     274233 HIT:     272876 MISS:       1357
cpu0_L2C TRANSLATION  ACCESS:     160645 HIT:      39057 MISS:     121588
cpu0_L2C PREFETCH REQUESTED:       3838 ISSUED:       3838 USEFUL:        622 USELESS:       2887
cpu0_L2C AVERAGE MISS LATENCY: 303.7 cycles
cpu0_STLB TOTAL        ACCESS:     538034 HIT:     414322 MISS:     123712
cpu0_STLB LOAD         ACCESS:     538034 HIT:     414322 MISS:     123712
cpu0_STLB RFO          ACCESS:          0 HIT:          0 MISS:          0
cpu0_STLB PREFETCH     ACCESS:          0 HIT:          0 MISS:          0
cpu0_STLB WRITE        ACCESS:          0 HIT:          0 MISS:          0
cpu0_STLB TRANSLATION  ACCESS:          0 HIT:          0 MISS:          0
cpu0_STLB PREFETCH REQUESTED:          0 ISSUED:          0 USEFUL:          0 USELESS:          0
cpu0_STLB AVERAGE MISS LATENCY: 405.7 cycles

DRAM Statistics

Channel 0 RQ ROW_BUFFER_HIT:      41171
  ROW_BUFFER_MISS:     481301
 AVG DBUS CONGESTED CYCLE: 3.948
WQ ROW_BUFFER_HIT: Channel 0 
  ROW_BUFFER_MISS:       3263
  FULL:     131491
