WARNING: physical memory size is smaller than virtual memory size.

*** ChampSim Multicore Out-of-Order Simulator ***
Warmup Instructions: 25000000
Simulation Instructions: 25000000
Number of CPUs: 1
Page size: 4096

Off-chip DRAM Size: 4 GiB Channels: 1 Width: 64-bit Data Race: 800 MT/s
Heartbeat CPU 0 instructions: 10000001 cycles: 2605674 heartbeat IPC: 3.838 cumulative IPC: 3.838 (Simulation time: 00 hr 00 min 31 sec)
Heartbeat CPU 0 instructions: 20000001 cycles: 5105674 heartbeat IPC: 4 cumulative IPC: 3.917 (Simulation time: 00 hr 00 min 55 sec)
Warmup finished CPU 0 instructions: 25000001 cycles: 6355675 cumulative IPC: 3.933 (Simulation time: 00 hr 01 min 09 sec)
Warmup complete CPU 0 instructions: 25000001 cycles: 6355675 cumulative IPC: 3.933 (Simulation time: 00 hr 01 min 09 sec)
Heartbeat CPU 0 instructions: 30000000 cycles: 11631673 heartbeat IPC: 1.532 cumulative IPC: 0.9477 (Simulation time: 00 hr 01 min 50 sec)
Heartbeat CPU 0 instructions: 40000001 cycles: 21693233 heartbeat IPC: 0.9939 cumulative IPC: 0.978 (Simulation time: 00 hr 03 min 04 sec)
Heartbeat CPU 0 instructions: 50000003 cycles: 27310154 heartbeat IPC: 1.78 cumulative IPC: 1.193 (Simulation time: 00 hr 03 min 56 sec)
Simulation finished CPU 0 instructions: 25000002 cycles: 20954480 cumulative IPC: 1.193 (Simulation time: 00 hr 03 min 56 sec)
Simulation complete CPU 0 instructions: 25000002 cycles: 20954480 cumulative IPC: 1.193 (Simulation time: 00 hr 03 min 56 sec)

ChampSim completed all CPUs

=== Simulation ===
CPU 0 runs ./traces/621.wrf_s-8065B.champsimtrace.xz
Region of Interest Statistics

CPU 0 cumulative IPC: 1.193 instructions: 25000002 cycles: 20954480
CPU 0 Branch Prediction Accuracy: 95.11% MPKI: 1.601 Average ROB Occupancy at Mispredict: 238.5
Branch type MPKI
BRANCH_DIRECT_JUMP: 0.00028
BRANCH_INDIRECT: 0
BRANCH_CONDITIONAL: 1.6
BRANCH_DIRECT_CALL: 0.00096
BRANCH_INDIRECT_CALL: 0
BRANCH_RETURN: 0.00104

LLC TOTAL        ACCESS:     432095 HIT:     223147 MISS:     208948
LLC LOAD         ACCESS:      65054 HIT:      35281 MISS:      29773
LLC RFO          ACCESS:      76684 HIT:      24456 MISS:      52228
LLC PREFETCH     ACCESS:     151157 HIT:      63780 MISS:      87377
LLC WRITE        ACCESS:     138990 HIT:      99602 MISS:      39388
LLC TRANSLATION  ACCESS:        210 HIT:         28 MISS:        182
LLC PREFETCH REQUESTED:          0 ISSUED:          0 USEFUL:          0 USELESS:          0
LLC AVERAGE MISS LATENCY: 645.1 cycles
cpu0_DTLB TOTAL        ACCESS:    5997912 HIT:    5959626 MISS:      38286
cpu0_DTLB LOAD         ACCESS:    5997912 HIT:    5959626 MISS:      38286
cpu0_DTLB RFO          ACCESS:          0 HIT:          0 MISS:          0
cpu0_DTLB PREFETCH     ACCESS:          0 HIT:          0 MISS:          0
cpu0_DTLB WRITE        ACCESS:          0 HIT:          0 MISS:          0
cpu0_DTLB TRANSLATION  ACCESS:          0 HIT:          0 MISS:          0
cpu0_DTLB PREFETCH REQUESTED:          0 ISSUED:          0 USEFUL:          0 USELESS:          0
cpu0_DTLB AVERAGE MISS LATENCY: 11.12 cycles
cpu0_ITLB TOTAL        ACCESS:       1820 HIT:       1722 MISS:         98
cpu0_ITLB LOAD         ACCESS:       1820 HIT:       1722 MISS:         98
cpu0_ITLB RFO          ACCESS:          0 HIT:          0 MISS:          0
cpu0_ITLB PREFETCH     ACCESS:          0 HIT:          0 MISS:          0
cpu0_ITLB WRITE        ACCESS:          0 HIT:          0 MISS:          0
cpu0_ITLB TRANSLATION  ACCESS:          0 HIT:          0 MISS:          0
cpu0_ITLB PREFETCH REQUESTED:          0 ISSUED:          0 USEFUL:          0 USELESS:          0
cpu0_ITLB AVERAGE MISS LATENCY: 111.6 cycles
cpu0_L1D TOTAL        ACCESS:    9830033 HIT:    8102644 MISS:    1727389
cpu0_L1D LOAD         ACCESS:    6275538 HIT:    5521844 MISS:     753694
cpu0_L1D RFO          ACCESS:          0 HIT:          0 MISS:          0
cpu0_L1D PREFETCH     ACCESS:    2456620 HIT:    1878767 MISS:     577853
cpu0_L1D WRITE        ACCESS:    1096061 HIT:     701311 MISS:     394750
cpu0_L1D TRANSLATION  ACCESS:       1814 HIT:        722 MISS:       1092
cpu0_L1D PREFETCH REQUESTED:    6592305 ISSUED:    2456619 USEFUL:     202470 USELESS:      10734
cpu0_L1D AVERAGE MISS LATENCY: 66.66 cycles
cpu0_L1I TOTAL        ACCESS:       2304 HIT:        538 MISS:       1766
cpu0_L1I LOAD         ACCESS:       2304 HIT:        538 MISS:       1766
cpu0_L1I RFO          ACCESS:          0 HIT:          0 MISS:          0
cpu0_L1I PREFETCH     ACCESS:          0 HIT:          0 MISS:          0
cpu0_L1I WRITE        ACCESS:          0 HIT:          0 MISS:          0
cpu0_L1I TRANSLATION  ACCESS:          0 HIT:          0 MISS:          0
cpu0_L1I PREFETCH REQUESTED:          0 ISSUED:          0 USEFUL:          0 USELESS:          0
cpu0_L1I AVERAGE MISS LATENCY: 354.9 cycles
cpu0_L2C TOTAL        ACCESS:     672896 HIT:     341440 MISS:     331456
cpu0_L2C LOAD         ACCESS:     123227 HIT:      50106 MISS:      73121
cpu0_L2C RFO          ACCESS:      84583 HIT:       7899 MISS:      76684
cpu0_L2C PREFETCH     ACCESS:     304553 HIT:     123199 MISS:     181354
cpu0_L2C WRITE        ACCESS:     159473 HIT:     159386 MISS:         87
cpu0_L2C TRANSLATION  ACCESS:       1060 HIT:        850 MISS:        210
cpu0_L2C PREFETCH REQUESTED:      91364 ISSUED:      91362 USEFUL:      38182 USELESS:       6817
cpu0_L2C AVERAGE MISS LATENCY: 420.4 cycles
cpu0_STLB TOTAL        ACCESS:      25205 HIT:      23396 MISS:       1809
cpu0_STLB LOAD         ACCESS:      25205 HIT:      23396 MISS:       1809
cpu0_STLB RFO          ACCESS:          0 HIT:          0 MISS:          0
cpu0_STLB PREFETCH     ACCESS:          0 HIT:          0 MISS:          0
cpu0_STLB WRITE        ACCESS:          0 HIT:          0 MISS:          0
cpu0_STLB TRANSLATION  ACCESS:          0 HIT:          0 MISS:          0
cpu0_STLB PREFETCH REQUESTED:          0 ISSUED:          0 USEFUL:          0 USELESS:          0
cpu0_STLB AVERAGE MISS LATENCY: 221.5 cycles

DRAM Statistics

Channel 0 RQ ROW_BUFFER_HIT:      45412
  ROW_BUFFER_MISS:     122884
 AVG DBUS CONGESTED CYCLE: 3.929
WQ ROW_BUFFER_HIT: Channel 0 
  ROW_BUFFER_MISS:      11886
  FULL:      79025
