WARNING: physical memory size is smaller than virtual memory size.

*** ChampSim Multicore Out-of-Order Simulator ***
Warmup Instructions: 25000000
Simulation Instructions: 25000000
Number of CPUs: 1
Page size: 4096

Off-chip DRAM Size: 4 GiB Channels: 1 Width: 64-bit Data Race: 800 MT/s
Heartbeat CPU 0 instructions: 10000003 cycles: 2500092 heartbeat IPC: 4 cumulative IPC: 4 (Simulation time: 00 hr 00 min 27 sec)
Heartbeat CPU 0 instructions: 20000003 cycles: 5002128 heartbeat IPC: 3.997 cumulative IPC: 3.998 (Simulation time: 00 hr 00 min 53 sec)
Warmup finished CPU 0 instructions: 25000000 cycles: 6252195 cumulative IPC: 3.999 (Simulation time: 00 hr 01 min 05 sec)
Warmup complete CPU 0 instructions: 25000000 cycles: 6252195 cumulative IPC: 3.999 (Simulation time: 00 hr 01 min 05 sec)
Heartbeat CPU 0 instructions: 30000003 cycles: 9759680 heartbeat IPC: 2.102 cumulative IPC: 1.426 (Simulation time: 00 hr 01 min 36 sec)
Heartbeat CPU 0 instructions: 40000000 cycles: 46727786 heartbeat IPC: 0.2705 cumulative IPC: 0.3706 (Simulation time: 00 hr 05 min 59 sec)
Heartbeat CPU 0 instructions: 50000003 cycles: 67575633 heartbeat IPC: 0.4797 cumulative IPC: 0.4077 (Simulation time: 00 hr 08 min 22 sec)
Simulation finished CPU 0 instructions: 25000003 cycles: 61323439 cumulative IPC: 0.4077 (Simulation time: 00 hr 08 min 22 sec)
Simulation complete CPU 0 instructions: 25000003 cycles: 61323439 cumulative IPC: 0.4077 (Simulation time: 00 hr 08 min 22 sec)

ChampSim completed all CPUs

=== Simulation ===
CPU 0 runs ./traces/621.wrf_s-6673B.champsimtrace.xz
Region of Interest Statistics

CPU 0 cumulative IPC: 0.4077 instructions: 25000003 cycles: 61323439
CPU 0 Branch Prediction Accuracy: 96.82% MPKI: 2.139 Average ROB Occupancy at Mispredict: 297.6
Branch type MPKI
BRANCH_DIRECT_JUMP: 0.00072
BRANCH_INDIRECT: 0
BRANCH_CONDITIONAL: 2.12
BRANCH_DIRECT_CALL: 0.00672
BRANCH_INDIRECT_CALL: 0
BRANCH_RETURN: 0.0062

LLC TOTAL        ACCESS:     961698 HIT:     262333 MISS:     699365
LLC LOAD         ACCESS:     175629 HIT:      18904 MISS:     156725
LLC RFO          ACCESS:     135000 HIT:      10000 MISS:     125000
LLC PREFETCH     ACCESS:     404837 HIT:      34664 MISS:     370173
LLC WRITE        ACCESS:     245304 HIT:     198505 MISS:      46799
LLC TRANSLATION  ACCESS:        928 HIT:        260 MISS:        668
LLC PREFETCH REQUESTED:          0 ISSUED:          0 USEFUL:          0 USELESS:          0
LLC AVERAGE MISS LATENCY: 1166 cycles
cpu0_DTLB TOTAL        ACCESS:    6169731 HIT:    6101311 MISS:      68420
cpu0_DTLB LOAD         ACCESS:    6169731 HIT:    6101311 MISS:      68420
cpu0_DTLB RFO          ACCESS:          0 HIT:          0 MISS:          0
cpu0_DTLB PREFETCH     ACCESS:          0 HIT:          0 MISS:          0
cpu0_DTLB WRITE        ACCESS:          0 HIT:          0 MISS:          0
cpu0_DTLB TRANSLATION  ACCESS:          0 HIT:          0 MISS:          0
cpu0_DTLB PREFETCH REQUESTED:          0 ISSUED:          0 USEFUL:          0 USELESS:          0
cpu0_DTLB AVERAGE MISS LATENCY: 27.98 cycles
cpu0_ITLB TOTAL        ACCESS:       7061 HIT:       6954 MISS:        107
cpu0_ITLB LOAD         ACCESS:       7061 HIT:       6954 MISS:        107
cpu0_ITLB RFO          ACCESS:          0 HIT:          0 MISS:          0
cpu0_ITLB PREFETCH     ACCESS:          0 HIT:          0 MISS:          0
cpu0_ITLB WRITE        ACCESS:          0 HIT:          0 MISS:          0
cpu0_ITLB TRANSLATION  ACCESS:          0 HIT:          0 MISS:          0
cpu0_ITLB PREFETCH REQUESTED:          0 ISSUED:          0 USEFUL:          0 USELESS:          0
cpu0_ITLB AVERAGE MISS LATENCY: 200.3 cycles
cpu0_L1D TOTAL        ACCESS:   10271173 HIT:    6545776 MISS:    3725397
cpu0_L1D LOAD         ACCESS:    5486366 HIT:    3807933 MISS:    1678433
cpu0_L1D RFO          ACCESS:          0 HIT:          0 MISS:          0
cpu0_L1D PREFETCH     ACCESS:    2912712 HIT:    1674350 MISS:    1238362
cpu0_L1D WRITE        ACCESS:    1864218 HIT:    1059278 MISS:     804940
cpu0_L1D TRANSLATION  ACCESS:       7877 HIT:       4215 MISS:       3662
cpu0_L1D PREFETCH REQUESTED:   16717634 ISSUED:    2912717 USEFUL:     293571 USELESS:      22081
cpu0_L1D AVERAGE MISS LATENCY: 152.3 cycles
cpu0_L1I TOTAL        ACCESS:       9301 HIT:       7630 MISS:       1671
cpu0_L1I LOAD         ACCESS:       9301 HIT:       7630 MISS:       1671
cpu0_L1I RFO          ACCESS:          0 HIT:          0 MISS:          0
cpu0_L1I PREFETCH     ACCESS:          0 HIT:          0 MISS:          0
cpu0_L1I WRITE        ACCESS:          0 HIT:          0 MISS:          0
cpu0_L1I TRANSLATION  ACCESS:          0 HIT:          0 MISS:          0
cpu0_L1I PREFETCH REQUESTED:          0 ISSUED:          0 USEFUL:          0 USELESS:          0
cpu0_L1I AVERAGE MISS LATENCY: 440.4 cycles
cpu0_L2C TOTAL        ACCESS:    1249711 HIT:     489443 MISS:     760268
cpu0_L2C LOAD         ACCESS:     233861 HIT:      46932 MISS:     186929
cpu0_L2C RFO          ACCESS:     162381 HIT:      27352 MISS:     135029
cpu0_L2C PREFETCH     ACCESS:     548494 HIT:     111204 MISS:     437290
cpu0_L2C WRITE        ACCESS:     301635 HIT:     301543 MISS:         92
cpu0_L2C TRANSLATION  ACCESS:       3340 HIT:       2412 MISS:        928
cpu0_L2C PREFETCH REQUESTED:     232877 ISSUED:     232844 USEFUL:      26670 USELESS:      10754
cpu0_L2C AVERAGE MISS LATENCY: 989.1 cycles
cpu0_STLB TOTAL        ACCESS:      23598 HIT:      15695 MISS:       7903
cpu0_STLB LOAD         ACCESS:      23598 HIT:      15695 MISS:       7903
cpu0_STLB RFO          ACCESS:          0 HIT:          0 MISS:          0
cpu0_STLB PREFETCH     ACCESS:          0 HIT:          0 MISS:          0
cpu0_STLB WRITE        ACCESS:          0 HIT:          0 MISS:          0
cpu0_STLB TRANSLATION  ACCESS:          0 HIT:          0 MISS:          0
cpu0_STLB PREFETCH REQUESTED:          0 ISSUED:          0 USEFUL:          0 USELESS:          0
cpu0_STLB AVERAGE MISS LATENCY: 353.8 cycles

DRAM Statistics

Channel 0 RQ ROW_BUFFER_HIT:     172006
  ROW_BUFFER_MISS:     371976
 AVG DBUS CONGESTED CYCLE: 3.926
WQ ROW_BUFFER_HIT: Channel 0 
  ROW_BUFFER_MISS:      16618
  FULL:     219164
