WARNING: physical memory size is smaller than virtual memory size.

*** ChampSim Multicore Out-of-Order Simulator ***
Warmup Instructions: 25000000
Simulation Instructions: 25000000
Number of CPUs: 1
Page size: 4096

Off-chip DRAM Size: 4 GiB Channels: 1 Width: 64-bit Data Race: 800 MT/s
Heartbeat CPU 0 instructions: 10000002 cycles: 2500261 heartbeat IPC: 4 cumulative IPC: 4 (Simulation time: 00 hr 00 min 31 sec)
Heartbeat CPU 0 instructions: 20000002 cycles: 5000261 heartbeat IPC: 4 cumulative IPC: 4 (Simulation time: 00 hr 00 min 59 sec)
Warmup finished CPU 0 instructions: 25000002 cycles: 6254705 cumulative IPC: 3.997 (Simulation time: 00 hr 01 min 15 sec)
Warmup complete CPU 0 instructions: 25000002 cycles: 6254705 cumulative IPC: 3.997 (Simulation time: 00 hr 01 min 15 sec)
Heartbeat CPU 0 instructions: 30000001 cycles: 9865187 heartbeat IPC: 2.056 cumulative IPC: 1.385 (Simulation time: 00 hr 01 min 46 sec)
Heartbeat CPU 0 instructions: 40000003 cycles: 16633265 heartbeat IPC: 1.478 cumulative IPC: 1.445 (Simulation time: 00 hr 02 min 43 sec)
Heartbeat CPU 0 instructions: 50000002 cycles: 23389595 heartbeat IPC: 1.48 cumulative IPC: 1.459 (Simulation time: 00 hr 03 min 42 sec)
Simulation finished CPU 0 instructions: 25000000 cycles: 17134891 cumulative IPC: 1.459 (Simulation time: 00 hr 03 min 42 sec)
Simulation complete CPU 0 instructions: 25000000 cycles: 17134891 cumulative IPC: 1.459 (Simulation time: 00 hr 03 min 42 sec)

ChampSim completed all CPUs

=== Simulation ===
CPU 0 runs ./traces/623.xalancbmk_s-700B.champsimtrace.xz
Region of Interest Statistics

CPU 0 cumulative IPC: 1.459 instructions: 25000000 cycles: 17134891
CPU 0 Branch Prediction Accuracy: 93.12% MPKI: 17.91 Average ROB Occupancy at Mispredict: 20.95
Branch type MPKI
BRANCH_DIRECT_JUMP: 0.182
BRANCH_INDIRECT: 0.594
BRANCH_CONDITIONAL: 14.2
BRANCH_DIRECT_CALL: 0
BRANCH_INDIRECT_CALL: 0.61
BRANCH_RETURN: 2.37

LLC TOTAL        ACCESS:     770739 HIT:     718412 MISS:      52327
LLC LOAD         ACCESS:     540348 HIT:     538995 MISS:       1353
LLC RFO          ACCESS:      48942 HIT:       8820 MISS:      40122
LLC PREFETCH     ACCESS:      93592 HIT:      85388 MISS:       8204
LLC WRITE        ACCESS:      67769 HIT:      65513 MISS:       2256
LLC TRANSLATION  ACCESS:      20088 HIT:      19696 MISS:        392
LLC PREFETCH REQUESTED:          0 ISSUED:          0 USEFUL:          0 USELESS:          0
LLC AVERAGE MISS LATENCY: 390.4 cycles
cpu0_DTLB TOTAL        ACCESS:    6808395 HIT:    5925428 MISS:     882967
cpu0_DTLB LOAD         ACCESS:    6808395 HIT:    5925428 MISS:     882967
cpu0_DTLB RFO          ACCESS:          0 HIT:          0 MISS:          0
cpu0_DTLB PREFETCH     ACCESS:          0 HIT:          0 MISS:          0
cpu0_DTLB WRITE        ACCESS:          0 HIT:          0 MISS:          0
cpu0_DTLB TRANSLATION  ACCESS:          0 HIT:          0 MISS:          0
cpu0_DTLB PREFETCH REQUESTED:          0 ISSUED:          0 USEFUL:          0 USELESS:          0
cpu0_DTLB AVERAGE MISS LATENCY: 4.93 cycles
cpu0_ITLB TOTAL        ACCESS:    1519583 HIT:    1481181 MISS:      38402
cpu0_ITLB LOAD         ACCESS:    1519583 HIT:    1481181 MISS:      38402
cpu0_ITLB RFO          ACCESS:          0 HIT:          0 MISS:          0
cpu0_ITLB PREFETCH     ACCESS:          0 HIT:          0 MISS:          0
cpu0_ITLB WRITE        ACCESS:          0 HIT:          0 MISS:          0
cpu0_ITLB TRANSLATION  ACCESS:          0 HIT:          0 MISS:          0
cpu0_ITLB PREFETCH REQUESTED:          0 ISSUED:          0 USEFUL:          0 USELESS:          0
cpu0_ITLB AVERAGE MISS LATENCY: 2.624 cycles
cpu0_L1D TOTAL        ACCESS:   12538646 HIT:    8510217 MISS:    4028429
cpu0_L1D LOAD         ACCESS:    5420889 HIT:    3066143 MISS:    2354746
cpu0_L1D RFO          ACCESS:          0 HIT:          0 MISS:          0
cpu0_L1D PREFETCH     ACCESS:    4307856 HIT:    2902102 MISS:    1405754
cpu0_L1D WRITE        ACCESS:    2777619 HIT:    2541151 MISS:     236468
cpu0_L1D TRANSLATION  ACCESS:      32282 HIT:        821 MISS:      31461
cpu0_L1D PREFETCH REQUESTED:    5907156 ISSUED:    4307856 USEFUL:      82886 USELESS:     161471
cpu0_L1D AVERAGE MISS LATENCY: 11.67 cycles
cpu0_L1I TOTAL        ACCESS:    1659502 HIT:    1508049 MISS:     151453
cpu0_L1I LOAD         ACCESS:    1659502 HIT:    1508049 MISS:     151453
cpu0_L1I RFO          ACCESS:          0 HIT:          0 MISS:          0
cpu0_L1I PREFETCH     ACCESS:          0 HIT:          0 MISS:          0
cpu0_L1I WRITE        ACCESS:          0 HIT:          0 MISS:          0
cpu0_L1I TRANSLATION  ACCESS:          0 HIT:          0 MISS:          0
cpu0_L1I PREFETCH REQUESTED:          0 ISSUED:          0 USEFUL:          0 USELESS:          0
cpu0_L1I AVERAGE MISS LATENCY: 8.348 cycles
cpu0_L2C TOTAL        ACCESS:    2063928 HIT:    1303090 MISS:     760838
cpu0_L2C LOAD         ACCESS:    1249458 HIT:     694567 MISS:     554891
cpu0_L2C RFO          ACCESS:      61762 HIT:      12785 MISS:      48977
cpu0_L2C PREFETCH     ACCESS:     614393 HIT:     477532 MISS:     136861
cpu0_L2C WRITE        ACCESS:     106854 HIT:     106833 MISS:         21
cpu0_L2C TRANSLATION  ACCESS:      31461 HIT:      11373 MISS:      20088
cpu0_L2C PREFETCH REQUESTED:     370088 ISSUED:     370070 USEFUL:      19934 USELESS:       3202
cpu0_L2C AVERAGE MISS LATENCY: 45.12 cycles
cpu0_STLB TOTAL        ACCESS:     545813 HIT:     513581 MISS:      32232
cpu0_STLB LOAD         ACCESS:     545813 HIT:     513581 MISS:      32232
cpu0_STLB RFO          ACCESS:          0 HIT:          0 MISS:          0
cpu0_STLB PREFETCH     ACCESS:          0 HIT:          0 MISS:          0
cpu0_STLB WRITE        ACCESS:          0 HIT:          0 MISS:          0
cpu0_STLB TRANSLATION  ACCESS:          0 HIT:          0 MISS:          0
cpu0_STLB PREFETCH REQUESTED:          0 ISSUED:          0 USEFUL:          0 USELESS:          0
cpu0_STLB AVERAGE MISS LATENCY: 36.49 cycles

DRAM Statistics

Channel 0 RQ ROW_BUFFER_HIT:      23528
  ROW_BUFFER_MISS:      26539
 AVG DBUS CONGESTED CYCLE: 3.967
WQ ROW_BUFFER_HIT: Channel 0 
  ROW_BUFFER_MISS:       3589
  FULL:      37987
