WARNING: physical memory size is smaller than virtual memory size.

*** ChampSim Multicore Out-of-Order Simulator ***
Warmup Instructions: 25000000
Simulation Instructions: 25000000
Number of CPUs: 1
Page size: 4096

Off-chip DRAM Size: 4 GiB Channels: 1 Width: 64-bit Data Race: 800 MT/s
Heartbeat CPU 0 instructions: 10000002 cycles: 2500210 heartbeat IPC: 4 cumulative IPC: 4 (Simulation time: 00 hr 00 min 28 sec)
Heartbeat CPU 0 instructions: 20000003 cycles: 5006997 heartbeat IPC: 3.989 cumulative IPC: 3.994 (Simulation time: 00 hr 00 min 57 sec)
Warmup finished CPU 0 instructions: 25000003 cycles: 6257015 cumulative IPC: 3.996 (Simulation time: 00 hr 01 min 12 sec)
Warmup complete CPU 0 instructions: 25000003 cycles: 6257015 cumulative IPC: 3.996 (Simulation time: 00 hr 01 min 12 sec)
Heartbeat CPU 0 instructions: 30000002 cycles: 9723540 heartbeat IPC: 2.12 cumulative IPC: 1.442 (Simulation time: 00 hr 01 min 38 sec)
Heartbeat CPU 0 instructions: 40000003 cycles: 16554734 heartbeat IPC: 1.464 cumulative IPC: 1.457 (Simulation time: 00 hr 02 min 31 sec)
Heartbeat CPU 0 instructions: 50000003 cycles: 21294834 heartbeat IPC: 2.11 cumulative IPC: 1.662 (Simulation time: 00 hr 03 min 14 sec)
Simulation finished CPU 0 instructions: 25000000 cycles: 15037820 cumulative IPC: 1.662 (Simulation time: 00 hr 03 min 14 sec)
Simulation complete CPU 0 instructions: 25000000 cycles: 15037820 cumulative IPC: 1.662 (Simulation time: 00 hr 03 min 14 sec)

ChampSim completed all CPUs

=== Simulation ===
CPU 0 runs ./traces/623.xalancbmk_s-325B.champsimtrace.xz
Region of Interest Statistics

CPU 0 cumulative IPC: 1.662 instructions: 25000000 cycles: 15037820
CPU 0 Branch Prediction Accuracy: 95.9% MPKI: 12.3 Average ROB Occupancy at Mispredict: 22.44
Branch type MPKI
BRANCH_DIRECT_JUMP: 0.119
BRANCH_INDIRECT: 0.389
BRANCH_CONDITIONAL: 9.83
BRANCH_DIRECT_CALL: 0
BRANCH_INDIRECT_CALL: 0.401
BRANCH_RETURN: 1.57

LLC TOTAL        ACCESS:     224673 HIT:     181220 MISS:      43453
LLC LOAD         ACCESS:     112160 HIT:     110046 MISS:       2114
LLC RFO          ACCESS:      33866 HIT:        804 MISS:      33062
LLC PREFETCH     ACCESS:      32534 HIT:      25328 MISS:       7206
LLC WRITE        ACCESS:      45583 HIT:      44683 MISS:        900
LLC TRANSLATION  ACCESS:        530 HIT:        359 MISS:        171
LLC PREFETCH REQUESTED:          0 ISSUED:          0 USEFUL:          0 USELESS:          0
LLC AVERAGE MISS LATENCY: 433 cycles
cpu0_DTLB TOTAL        ACCESS:    7075639 HIT:    6511133 MISS:     564506
cpu0_DTLB LOAD         ACCESS:    7075639 HIT:    6511133 MISS:     564506
cpu0_DTLB RFO          ACCESS:          0 HIT:          0 MISS:          0
cpu0_DTLB PREFETCH     ACCESS:          0 HIT:          0 MISS:          0
cpu0_DTLB WRITE        ACCESS:          0 HIT:          0 MISS:          0
cpu0_DTLB TRANSLATION  ACCESS:          0 HIT:          0 MISS:          0
cpu0_DTLB PREFETCH REQUESTED:          0 ISSUED:          0 USEFUL:          0 USELESS:          0
cpu0_DTLB AVERAGE MISS LATENCY: 4.051 cycles
cpu0_ITLB TOTAL        ACCESS:     989128 HIT:     963909 MISS:      25219
cpu0_ITLB LOAD         ACCESS:     989128 HIT:     963909 MISS:      25219
cpu0_ITLB RFO          ACCESS:          0 HIT:          0 MISS:          0
cpu0_ITLB PREFETCH     ACCESS:          0 HIT:          0 MISS:          0
cpu0_ITLB WRITE        ACCESS:          0 HIT:          0 MISS:          0
cpu0_ITLB TRANSLATION  ACCESS:          0 HIT:          0 MISS:          0
cpu0_ITLB PREFETCH REQUESTED:          0 ISSUED:          0 USEFUL:          0 USELESS:          0
cpu0_ITLB AVERAGE MISS LATENCY: 2.132 cycles
cpu0_L1D TOTAL        ACCESS:   13435445 HIT:    8829291 MISS:    4606154
cpu0_L1D LOAD         ACCESS:    6144019 HIT:    3722078 MISS:    2421941
cpu0_L1D RFO          ACCESS:          0 HIT:          0 MISS:          0
cpu0_L1D PREFETCH     ACCESS:    5387203 HIT:    3389256 MISS:    1997947
cpu0_L1D WRITE        ACCESS:    1903615 HIT:    1717955 MISS:     185660
cpu0_L1D TRANSLATION  ACCESS:        608 HIT:          2 MISS:        606
cpu0_L1D PREFETCH REQUESTED:    6229076 ISSUED:    5387203 USEFUL:     152078 USELESS:     148581
cpu0_L1D AVERAGE MISS LATENCY: 6.695 cycles
cpu0_L1I TOTAL        ACCESS:    1079191 HIT:     983407 MISS:      95784
cpu0_L1I LOAD         ACCESS:    1079191 HIT:     983407 MISS:      95784
cpu0_L1I RFO          ACCESS:          0 HIT:          0 MISS:          0
cpu0_L1I PREFETCH     ACCESS:          0 HIT:          0 MISS:          0
cpu0_L1I WRITE        ACCESS:          0 HIT:          0 MISS:          0
cpu0_L1I TRANSLATION  ACCESS:          0 HIT:          0 MISS:          0
cpu0_L1I PREFETCH REQUESTED:          0 ISSUED:          0 USEFUL:          0 USELESS:          0
cpu0_L1I AVERAGE MISS LATENCY: 7.585 cycles
cpu0_L2C TOTAL        ACCESS:    1877290 HIT:    1673628 MISS:     203662
cpu0_L2C LOAD         ACCESS:     885883 HIT:     767269 MISS:     118614
cpu0_L2C RFO          ACCESS:      47693 HIT:      13790 MISS:      33903
cpu0_L2C PREFETCH     ACCESS:     849854 HIT:     799265 MISS:      50589
cpu0_L2C WRITE        ACCESS:      93254 HIT:      93228 MISS:         26
cpu0_L2C TRANSLATION  ACCESS:        606 HIT:         76 MISS:        530
cpu0_L2C PREFETCH REQUESTED:     549220 ISSUED:     549187 USEFUL:       9197 USELESS:       1900
cpu0_L2C AVERAGE MISS LATENCY: 109.5 cycles
cpu0_STLB TOTAL        ACCESS:     354788 HIT:     354180 MISS:        608
cpu0_STLB LOAD         ACCESS:     354788 HIT:     354180 MISS:        608
cpu0_STLB RFO          ACCESS:          0 HIT:          0 MISS:          0
cpu0_STLB PREFETCH     ACCESS:          0 HIT:          0 MISS:          0
cpu0_STLB WRITE        ACCESS:          0 HIT:          0 MISS:          0
cpu0_STLB TRANSLATION  ACCESS:          0 HIT:          0 MISS:          0
cpu0_STLB PREFETCH REQUESTED:          0 ISSUED:          0 USEFUL:          0 USELESS:          0
cpu0_STLB AVERAGE MISS LATENCY: 266.6 cycles

DRAM Statistics

Channel 0 RQ ROW_BUFFER_HIT:      20358
  ROW_BUFFER_MISS:      22190
 AVG DBUS CONGESTED CYCLE: 3.977
WQ ROW_BUFFER_HIT: Channel 0 
  ROW_BUFFER_MISS:       3171
  FULL:      36234
