WARNING: physical memory size is smaller than virtual memory size.

*** ChampSim Multicore Out-of-Order Simulator ***
Warmup Instructions: 25000000
Simulation Instructions: 25000000
Number of CPUs: 1
Page size: 4096

Off-chip DRAM Size: 4 GiB Channels: 1 Width: 64-bit Data Race: 800 MT/s
Heartbeat CPU 0 instructions: 10000003 cycles: 2500088 heartbeat IPC: 4 cumulative IPC: 4 (Simulation time: 00 hr 00 min 28 sec)
Heartbeat CPU 0 instructions: 20000003 cycles: 5000088 heartbeat IPC: 4 cumulative IPC: 4 (Simulation time: 00 hr 00 min 53 sec)
Warmup finished CPU 0 instructions: 25000003 cycles: 6250089 cumulative IPC: 4 (Simulation time: 00 hr 01 min 07 sec)
Warmup complete CPU 0 instructions: 25000003 cycles: 6250089 cumulative IPC: 4 (Simulation time: 00 hr 01 min 07 sec)
Heartbeat CPU 0 instructions: 30000000 cycles: 9440513 heartbeat IPC: 2.252 cumulative IPC: 1.567 (Simulation time: 00 hr 01 min 30 sec)
Heartbeat CPU 0 instructions: 40000001 cycles: 18003376 heartbeat IPC: 1.168 cumulative IPC: 1.276 (Simulation time: 00 hr 02 min 25 sec)
Heartbeat CPU 0 instructions: 50000000 cycles: 26108482 heartbeat IPC: 1.234 cumulative IPC: 1.259 (Simulation time: 00 hr 03 min 18 sec)
Simulation finished CPU 0 instructions: 25000001 cycles: 19858395 cumulative IPC: 1.259 (Simulation time: 00 hr 03 min 18 sec)
Simulation complete CPU 0 instructions: 25000001 cycles: 19858395 cumulative IPC: 1.259 (Simulation time: 00 hr 03 min 18 sec)

ChampSim completed all CPUs

=== Simulation ===
CPU 0 runs ./traces/623.xalancbmk_s-202B.champsimtrace.xz
Region of Interest Statistics

CPU 0 cumulative IPC: 1.259 instructions: 25000001 cycles: 19858395
CPU 0 Branch Prediction Accuracy: 95.19% MPKI: 13.3 Average ROB Occupancy at Mispredict: 44.03
Branch type MPKI
BRANCH_DIRECT_JUMP: 0
BRANCH_INDIRECT: 0
BRANCH_CONDITIONAL: 13.3
BRANCH_DIRECT_CALL: 0
BRANCH_INDIRECT_CALL: 0
BRANCH_RETURN: 0

LLC TOTAL        ACCESS:     673859 HIT:     409309 MISS:     264550
LLC LOAD         ACCESS:      85801 HIT:      63465 MISS:      22336
LLC RFO          ACCESS:          0 HIT:          0 MISS:          0
LLC PREFETCH     ACCESS:     588028 HIT:     345843 MISS:     242185
LLC WRITE        ACCESS:          0 HIT:          0 MISS:          0
LLC TRANSLATION  ACCESS:         30 HIT:          1 MISS:         29
LLC PREFETCH REQUESTED:          0 ISSUED:          0 USEFUL:          0 USELESS:          0
LLC AVERAGE MISS LATENCY: 342.2 cycles
cpu0_DTLB TOTAL        ACCESS:    5681025 HIT:    5634351 MISS:      46674
cpu0_DTLB LOAD         ACCESS:    5681025 HIT:    5634351 MISS:      46674
cpu0_DTLB RFO          ACCESS:          0 HIT:          0 MISS:          0
cpu0_DTLB PREFETCH     ACCESS:          0 HIT:          0 MISS:          0
cpu0_DTLB WRITE        ACCESS:          0 HIT:          0 MISS:          0
cpu0_DTLB TRANSLATION  ACCESS:          0 HIT:          0 MISS:          0
cpu0_DTLB PREFETCH REQUESTED:          0 ISSUED:          0 USEFUL:          0 USELESS:          0
cpu0_DTLB AVERAGE MISS LATENCY: 0.9143 cycles
cpu0_ITLB TOTAL        ACCESS:          0 HIT:          0 MISS:          0
cpu0_ITLB LOAD         ACCESS:          0 HIT:          0 MISS:          0
cpu0_ITLB RFO          ACCESS:          0 HIT:          0 MISS:          0
cpu0_ITLB PREFETCH     ACCESS:          0 HIT:          0 MISS:          0
cpu0_ITLB WRITE        ACCESS:          0 HIT:          0 MISS:          0
cpu0_ITLB TRANSLATION  ACCESS:          0 HIT:          0 MISS:          0
cpu0_ITLB PREFETCH REQUESTED:          0 ISSUED:          0 USEFUL:          0 USELESS:          0
cpu0_ITLB AVERAGE MISS LATENCY: -nan cycles
cpu0_L1D TOTAL        ACCESS:   12114047 HIT:    9486232 MISS:    2627815
cpu0_L1D LOAD         ACCESS:    6743807 HIT:    5132453 MISS:    1611354
cpu0_L1D RFO          ACCESS:          0 HIT:          0 MISS:          0
cpu0_L1D PREFETCH     ACCESS:    4926506 HIT:    3910076 MISS:    1016430
cpu0_L1D WRITE        ACCESS:     443625 HIT:     443625 MISS:          0
cpu0_L1D TRANSLATION  ACCESS:        109 HIT:         78 MISS:         31
cpu0_L1D PREFETCH REQUESTED:    6743823 ISSUED:    4926503 USEFUL:     114052 USELESS:      51421
cpu0_L1D AVERAGE MISS LATENCY: 10.4 cycles
cpu0_L1I TOTAL        ACCESS:          0 HIT:          0 MISS:          0
cpu0_L1I LOAD         ACCESS:          0 HIT:          0 MISS:          0
cpu0_L1I RFO          ACCESS:          0 HIT:          0 MISS:          0
cpu0_L1I PREFETCH     ACCESS:          0 HIT:          0 MISS:          0
cpu0_L1I WRITE        ACCESS:          0 HIT:          0 MISS:          0
cpu0_L1I TRANSLATION  ACCESS:          0 HIT:          0 MISS:          0
cpu0_L1I PREFETCH REQUESTED:          0 ISSUED:          0 USEFUL:          0 USELESS:          0
cpu0_L1I AVERAGE MISS LATENCY: -nan cycles
cpu0_L2C TOTAL        ACCESS:    1620687 HIT:     760500 MISS:     860187
cpu0_L2C LOAD         ACCESS:     514336 HIT:     367328 MISS:     147008
cpu0_L2C RFO          ACCESS:          0 HIT:          0 MISS:          0
cpu0_L2C PREFETCH     ACCESS:    1106320 HIT:     393171 MISS:     713149
cpu0_L2C WRITE        ACCESS:          0 HIT:          0 MISS:          0
cpu0_L2C TRANSLATION  ACCESS:         31 HIT:          1 MISS:         30
cpu0_L2C PREFETCH REQUESTED:     940765 ISSUED:     940765 USEFUL:     470541 USELESS:       7025
cpu0_L2C AVERAGE MISS LATENCY: 103 cycles
cpu0_STLB TOTAL        ACCESS:      10922 HIT:      10813 MISS:        109
cpu0_STLB LOAD         ACCESS:      10922 HIT:      10813 MISS:        109
cpu0_STLB RFO          ACCESS:          0 HIT:          0 MISS:          0
cpu0_STLB PREFETCH     ACCESS:          0 HIT:          0 MISS:          0
cpu0_STLB WRITE        ACCESS:          0 HIT:          0 MISS:          0
cpu0_STLB TRANSLATION  ACCESS:          0 HIT:          0 MISS:          0
cpu0_STLB PREFETCH REQUESTED:          0 ISSUED:          0 USEFUL:          0 USELESS:          0
cpu0_STLB AVERAGE MISS LATENCY: 283.2 cycles

DRAM Statistics

Channel 0 RQ ROW_BUFFER_HIT:     251590
  ROW_BUFFER_MISS:      12447
 AVG DBUS CONGESTED CYCLE: 3.91
WQ ROW_BUFFER_HIT: Channel 0 
  ROW_BUFFER_MISS:          0
  FULL:          0
