WARNING: physical memory size is smaller than virtual memory size.

*** ChampSim Multicore Out-of-Order Simulator ***
Warmup Instructions: 25000000
Simulation Instructions: 25000000
Number of CPUs: 1
Page size: 4096

Off-chip DRAM Size: 4 GiB Channels: 1 Width: 64-bit Data Race: 800 MT/s
Heartbeat CPU 0 instructions: 10000003 cycles: 2500186 heartbeat IPC: 4 cumulative IPC: 4 (Simulation time: 00 hr 00 min 30 sec)
Heartbeat CPU 0 instructions: 20000003 cycles: 5000186 heartbeat IPC: 4 cumulative IPC: 4 (Simulation time: 00 hr 01 min 01 sec)
Warmup finished CPU 0 instructions: 25000003 cycles: 6253604 cumulative IPC: 3.998 (Simulation time: 00 hr 01 min 17 sec)
Warmup complete CPU 0 instructions: 25000003 cycles: 6253604 cumulative IPC: 3.998 (Simulation time: 00 hr 01 min 17 sec)
Heartbeat CPU 0 instructions: 30000000 cycles: 9281212 heartbeat IPC: 2.336 cumulative IPC: 1.651 (Simulation time: 00 hr 01 min 43 sec)
Heartbeat CPU 0 instructions: 40000001 cycles: 16707131 heartbeat IPC: 1.347 cumulative IPC: 1.435 (Simulation time: 00 hr 02 min 42 sec)
Heartbeat CPU 0 instructions: 50000000 cycles: 23685367 heartbeat IPC: 1.433 cumulative IPC: 1.434 (Simulation time: 00 hr 03 min 42 sec)
Simulation finished CPU 0 instructions: 25000000 cycles: 17431776 cumulative IPC: 1.434 (Simulation time: 00 hr 03 min 42 sec)
Simulation complete CPU 0 instructions: 25000000 cycles: 17431776 cumulative IPC: 1.434 (Simulation time: 00 hr 03 min 42 sec)

ChampSim completed all CPUs

=== Simulation ===
CPU 0 runs ./traces/623.xalancbmk_s-592B.champsimtrace.xz
Region of Interest Statistics

CPU 0 cumulative IPC: 1.434 instructions: 25000000 cycles: 17431776
CPU 0 Branch Prediction Accuracy: 93.12% MPKI: 17.45 Average ROB Occupancy at Mispredict: 21.4
Branch type MPKI
BRANCH_DIRECT_JUMP: 0.18
BRANCH_INDIRECT: 0.561
BRANCH_CONDITIONAL: 13.8
BRANCH_DIRECT_CALL: 0.00256
BRANCH_INDIRECT_CALL: 0.612
BRANCH_RETURN: 2.31

LLC TOTAL        ACCESS:     865268 HIT:     796435 MISS:      68833
LLC LOAD         ACCESS:     604984 HIT:     603151 MISS:       1833
LLC RFO          ACCESS:      61108 HIT:       7451 MISS:      53657
LLC PREFETCH     ACCESS:      91305 HIT:      82639 MISS:       8666
LLC WRITE        ACCESS:      84029 HIT:      80679 MISS:       3350
LLC TRANSLATION  ACCESS:      23842 HIT:      22515 MISS:       1327
LLC PREFETCH REQUESTED:          0 ISSUED:          0 USEFUL:          0 USELESS:          0
LLC AVERAGE MISS LATENCY: 434.2 cycles
cpu0_DTLB TOTAL        ACCESS:    6613588 HIT:    5600163 MISS:    1013425
cpu0_DTLB LOAD         ACCESS:    6613588 HIT:    5600163 MISS:    1013425
cpu0_DTLB RFO          ACCESS:          0 HIT:          0 MISS:          0
cpu0_DTLB PREFETCH     ACCESS:          0 HIT:          0 MISS:          0
cpu0_DTLB WRITE        ACCESS:          0 HIT:          0 MISS:          0
cpu0_DTLB TRANSLATION  ACCESS:          0 HIT:          0 MISS:          0
cpu0_DTLB PREFETCH REQUESTED:          0 ISSUED:          0 USEFUL:          0 USELESS:          0
cpu0_DTLB AVERAGE MISS LATENCY: 5.198 cycles
cpu0_ITLB TOTAL        ACCESS:    1456318 HIT:    1418397 MISS:      37921
cpu0_ITLB LOAD         ACCESS:    1456318 HIT:    1418397 MISS:      37921
cpu0_ITLB RFO          ACCESS:          0 HIT:          0 MISS:          0
cpu0_ITLB PREFETCH     ACCESS:          0 HIT:          0 MISS:          0
cpu0_ITLB WRITE        ACCESS:          0 HIT:          0 MISS:          0
cpu0_ITLB TRANSLATION  ACCESS:          0 HIT:          0 MISS:          0
cpu0_ITLB PREFETCH REQUESTED:          0 ISSUED:          0 USEFUL:          0 USELESS:          0
cpu0_ITLB AVERAGE MISS LATENCY: 3.079 cycles
cpu0_L1D TOTAL        ACCESS:   11977650 HIT:    8523484 MISS:    3454166
cpu0_L1D LOAD         ACCESS:    5245989 HIT:    3090197 MISS:    2155792
cpu0_L1D RFO          ACCESS:          0 HIT:          0 MISS:          0
cpu0_L1D PREFETCH     ACCESS:    3885429 HIT:    2895725 MISS:     989704
cpu0_L1D WRITE        ACCESS:    2808630 HIT:    2536556 MISS:     272074
cpu0_L1D TRANSLATION  ACCESS:      37602 HIT:       1006 MISS:      36596
cpu0_L1D PREFETCH REQUESTED:    5867862 ISSUED:    3885428 USEFUL:      66991 USELESS:     157722
cpu0_L1D AVERAGE MISS LATENCY: 17.36 cycles
cpu0_L1I TOTAL        ACCESS:    1588722 HIT:    1444449 MISS:     144273
cpu0_L1I LOAD         ACCESS:    1588722 HIT:    1444449 MISS:     144273
cpu0_L1I RFO          ACCESS:          0 HIT:          0 MISS:          0
cpu0_L1I PREFETCH     ACCESS:          0 HIT:          0 MISS:          0
cpu0_L1I WRITE        ACCESS:          0 HIT:          0 MISS:          0
cpu0_L1I TRANSLATION  ACCESS:          0 HIT:          0 MISS:          0
cpu0_L1I PREFETCH REQUESTED:          0 ISSUED:          0 USEFUL:          0 USELESS:          0
cpu0_L1I AVERAGE MISS LATENCY: 8.593 cycles
cpu0_L2C TOTAL        ACCESS:    2068339 HIT:    1250295 MISS:     818044
cpu0_L2C LOAD         ACCESS:    1369015 HIT:     754949 MISS:     614066
cpu0_L2C RFO          ACCESS:      70810 HIT:       9647 MISS:      61163
cpu0_L2C PREFETCH     ACCESS:     476940 HIT:     357977 MISS:     118963
cpu0_L2C WRITE        ACCESS:     114998 HIT:     114988 MISS:         10
cpu0_L2C TRANSLATION  ACCESS:      36576 HIT:      12734 MISS:      23842
cpu0_L2C PREFETCH REQUESTED:     252394 ISSUED:     252302 USEFUL:      13642 USELESS:       3572
cpu0_L2C AVERAGE MISS LATENCY: 55.55 cycles
cpu0_STLB TOTAL        ACCESS:     621119 HIT:     583701 MISS:      37418
cpu0_STLB LOAD         ACCESS:     621119 HIT:     583701 MISS:      37418
cpu0_STLB RFO          ACCESS:          0 HIT:          0 MISS:          0
cpu0_STLB PREFETCH     ACCESS:          0 HIT:          0 MISS:          0
cpu0_STLB WRITE        ACCESS:          0 HIT:          0 MISS:          0
cpu0_STLB TRANSLATION  ACCESS:          0 HIT:          0 MISS:          0
cpu0_STLB PREFETCH REQUESTED:          0 ISSUED:          0 USEFUL:          0 USELESS:          0
cpu0_STLB AVERAGE MISS LATENCY: 44.15 cycles

DRAM Statistics

Channel 0 RQ ROW_BUFFER_HIT:      38483
  ROW_BUFFER_MISS:      26994
 AVG DBUS CONGESTED CYCLE: 3.974
WQ ROW_BUFFER_HIT: Channel 0 
  ROW_BUFFER_MISS:       4509
  FULL:      42831
