WARNING: physical memory size is smaller than virtual memory size.

*** ChampSim Multicore Out-of-Order Simulator ***
Warmup Instructions: 25000000
Simulation Instructions: 25000000
Number of CPUs: 1
Page size: 4096

Off-chip DRAM Size: 4 GiB Channels: 1 Width: 64-bit Data Race: 800 MT/s
Heartbeat CPU 0 instructions: 10000002 cycles: 2511678 heartbeat IPC: 3.981 cumulative IPC: 3.981 (Simulation time: 00 hr 00 min 27 sec)
Heartbeat CPU 0 instructions: 20000000 cycles: 5012358 heartbeat IPC: 3.999 cumulative IPC: 3.99 (Simulation time: 00 hr 00 min 55 sec)
Warmup finished CPU 0 instructions: 25000000 cycles: 6262689 cumulative IPC: 3.992 (Simulation time: 00 hr 01 min 09 sec)
Warmup complete CPU 0 instructions: 25000000 cycles: 6262689 cumulative IPC: 3.992 (Simulation time: 00 hr 01 min 09 sec)
Heartbeat CPU 0 instructions: 30000003 cycles: 8000632 heartbeat IPC: 3.346 cumulative IPC: 2.877 (Simulation time: 00 hr 01 min 29 sec)
Heartbeat CPU 0 instructions: 40000003 cycles: 11459210 heartbeat IPC: 2.891 cumulative IPC: 2.887 (Simulation time: 00 hr 02 min 08 sec)
Heartbeat CPU 0 instructions: 50000002 cycles: 14922789 heartbeat IPC: 2.887 cumulative IPC: 2.887 (Simulation time: 00 hr 02 min 46 sec)
Simulation finished CPU 0 instructions: 25000002 cycles: 8660101 cumulative IPC: 2.887 (Simulation time: 00 hr 02 min 46 sec)
Simulation complete CPU 0 instructions: 25000002 cycles: 8660101 cumulative IPC: 2.887 (Simulation time: 00 hr 02 min 46 sec)

ChampSim completed all CPUs

=== Simulation ===
CPU 0 runs ./traces/625.x264_s-20B.champsimtrace.xz
Region of Interest Statistics

CPU 0 cumulative IPC: 2.887 instructions: 25000002 cycles: 8660101
CPU 0 Branch Prediction Accuracy: 92.14% MPKI: 3.331 Average ROB Occupancy at Mispredict: 127.2
Branch type MPKI
BRANCH_DIRECT_JUMP: 0.0004
BRANCH_INDIRECT: 0.00028
BRANCH_CONDITIONAL: 3.22
BRANCH_DIRECT_CALL: 4e-05
BRANCH_INDIRECT_CALL: 0.00696
BRANCH_RETURN: 0.104

LLC TOTAL        ACCESS:      56551 HIT:      19971 MISS:      36580
LLC LOAD         ACCESS:      12564 HIT:       5924 MISS:       6640
LLC RFO          ACCESS:       9415 HIT:        405 MISS:       9010
LLC PREFETCH     ACCESS:      22759 HIT:       1962 MISS:      20797
LLC WRITE        ACCESS:      11188 HIT:      11103 MISS:         85
LLC TRANSLATION  ACCESS:        625 HIT:        577 MISS:         48
LLC PREFETCH REQUESTED:          0 ISSUED:          0 USEFUL:          0 USELESS:          0
LLC AVERAGE MISS LATENCY: 451.2 cycles
cpu0_DTLB TOTAL        ACCESS:    4293071 HIT:    4124509 MISS:     168562
cpu0_DTLB LOAD         ACCESS:    4293071 HIT:    4124509 MISS:     168562
cpu0_DTLB RFO          ACCESS:          0 HIT:          0 MISS:          0
cpu0_DTLB PREFETCH     ACCESS:          0 HIT:          0 MISS:          0
cpu0_DTLB WRITE        ACCESS:          0 HIT:          0 MISS:          0
cpu0_DTLB TRANSLATION  ACCESS:          0 HIT:          0 MISS:          0
cpu0_DTLB PREFETCH REQUESTED:          0 ISSUED:          0 USEFUL:          0 USELESS:          0
cpu0_DTLB AVERAGE MISS LATENCY: 3.95 cycles
cpu0_ITLB TOTAL        ACCESS:     565093 HIT:     565093 MISS:          0
cpu0_ITLB LOAD         ACCESS:     565093 HIT:     565093 MISS:          0
cpu0_ITLB RFO          ACCESS:          0 HIT:          0 MISS:          0
cpu0_ITLB PREFETCH     ACCESS:          0 HIT:          0 MISS:          0
cpu0_ITLB WRITE        ACCESS:          0 HIT:          0 MISS:          0
cpu0_ITLB TRANSLATION  ACCESS:          0 HIT:          0 MISS:          0
cpu0_ITLB PREFETCH REQUESTED:          0 ISSUED:          0 USEFUL:          0 USELESS:          0
cpu0_ITLB AVERAGE MISS LATENCY: -nan cycles
cpu0_L1D TOTAL        ACCESS:    7823914 HIT:    7073863 MISS:     750051
cpu0_L1D LOAD         ACCESS:    3165610 HIT:    2794818 MISS:     370792
cpu0_L1D RFO          ACCESS:          0 HIT:          0 MISS:          0
cpu0_L1D PREFETCH     ACCESS:    2116429 HIT:    1855909 MISS:     260520
cpu0_L1D WRITE        ACCESS:    2541083 HIT:    2423098 MISS:     117985
cpu0_L1D TRANSLATION  ACCESS:        792 HIT:         38 MISS:        754
cpu0_L1D PREFETCH REQUESTED:    3228321 ISSUED:    2116438 USEFUL:      16648 USELESS:      75664
cpu0_L1D AVERAGE MISS LATENCY: 24.14 cycles
cpu0_L1I TOTAL        ACCESS:     681543 HIT:     599113 MISS:      82430
cpu0_L1I LOAD         ACCESS:     681543 HIT:     599113 MISS:      82430
cpu0_L1I RFO          ACCESS:          0 HIT:          0 MISS:          0
cpu0_L1I PREFETCH     ACCESS:          0 HIT:          0 MISS:          0
cpu0_L1I WRITE        ACCESS:          0 HIT:          0 MISS:          0
cpu0_L1I TRANSLATION  ACCESS:          0 HIT:          0 MISS:          0
cpu0_L1I PREFETCH REQUESTED:          0 ISSUED:          0 USEFUL:          0 USELESS:          0
cpu0_L1I AVERAGE MISS LATENCY: 7.062 cycles
cpu0_L2C TOTAL        ACCESS:     417278 HIT:     370355 MISS:      46923
cpu0_L2C LOAD         ACCESS:     186363 HIT:     173771 MISS:      12592
cpu0_L2C RFO          ACCESS:      58596 HIT:      49181 MISS:       9415
cpu0_L2C PREFETCH     ACCESS:     100879 HIT:      76736 MISS:      24143
cpu0_L2C WRITE        ACCESS:      70702 HIT:      70554 MISS:        148
cpu0_L2C TRANSLATION  ACCESS:        738 HIT:        113 MISS:        625
cpu0_L2C PREFETCH REQUESTED:       8576 ISSUED:       8576 USEFUL:       1696 USELESS:        428
cpu0_L2C AVERAGE MISS LATENCY: 367.4 cycles
cpu0_STLB TOTAL        ACCESS:      86075 HIT:      85283 MISS:        792
cpu0_STLB LOAD         ACCESS:      86075 HIT:      85283 MISS:        792
cpu0_STLB RFO          ACCESS:          0 HIT:          0 MISS:          0
cpu0_STLB PREFETCH     ACCESS:          0 HIT:          0 MISS:          0
cpu0_STLB WRITE        ACCESS:          0 HIT:          0 MISS:          0
cpu0_STLB TRANSLATION  ACCESS:          0 HIT:          0 MISS:          0
cpu0_STLB PREFETCH REQUESTED:          0 ISSUED:          0 USEFUL:          0 USELESS:          0
cpu0_STLB AVERAGE MISS LATENCY: 283.7 cycles

DRAM Statistics

Channel 0 RQ ROW_BUFFER_HIT:      15294
  ROW_BUFFER_MISS:      20347
 AVG DBUS CONGESTED CYCLE: 3.924
WQ ROW_BUFFER_HIT: Channel 0 
  ROW_BUFFER_MISS:        902
  FULL:       9085
