WARNING: physical memory size is smaller than virtual memory size.

*** ChampSim Multicore Out-of-Order Simulator ***
Warmup Instructions: 25000000
Simulation Instructions: 25000000
Number of CPUs: 1
Page size: 4096

Off-chip DRAM Size: 4 GiB Channels: 1 Width: 64-bit Data Race: 800 MT/s
Heartbeat CPU 0 instructions: 10000002 cycles: 2568794 heartbeat IPC: 3.893 cumulative IPC: 3.893 (Simulation time: 00 hr 00 min 30 sec)
Heartbeat CPU 0 instructions: 20000003 cycles: 5137437 heartbeat IPC: 3.893 cumulative IPC: 3.893 (Simulation time: 00 hr 01 min 00 sec)
Warmup finished CPU 0 instructions: 25000002 cycles: 6421694 cumulative IPC: 3.893 (Simulation time: 00 hr 01 min 15 sec)
Warmup complete CPU 0 instructions: 25000002 cycles: 6421694 cumulative IPC: 3.893 (Simulation time: 00 hr 01 min 15 sec)
Heartbeat CPU 0 instructions: 30000000 cycles: 8769528 heartbeat IPC: 2.753 cumulative IPC: 2.13 (Simulation time: 00 hr 01 min 38 sec)
Heartbeat CPU 0 instructions: 40000002 cycles: 13455504 heartbeat IPC: 2.134 cumulative IPC: 2.133 (Simulation time: 00 hr 02 min 26 sec)
Heartbeat CPU 0 instructions: 50000001 cycles: 18059484 heartbeat IPC: 2.172 cumulative IPC: 2.148 (Simulation time: 00 hr 03 min 13 sec)
Simulation finished CPU 0 instructions: 25000003 cycles: 11637792 cumulative IPC: 2.148 (Simulation time: 00 hr 03 min 13 sec)
Simulation complete CPU 0 instructions: 25000003 cycles: 11637792 cumulative IPC: 2.148 (Simulation time: 00 hr 03 min 13 sec)

ChampSim completed all CPUs

=== Simulation ===
CPU 0 runs ./traces/628.pop2_s-17B.champsimtrace.xz
Region of Interest Statistics

CPU 0 cumulative IPC: 2.148 instructions: 25000003 cycles: 11637792
CPU 0 Branch Prediction Accuracy: 96.47% MPKI: 4.044 Average ROB Occupancy at Mispredict: 112.3
Branch type MPKI
BRANCH_DIRECT_JUMP: 0.0513
BRANCH_INDIRECT: 0.00164
BRANCH_CONDITIONAL: 3.99
BRANCH_DIRECT_CALL: 0
BRANCH_INDIRECT_CALL: 0
BRANCH_RETURN: 0

LLC TOTAL        ACCESS:     464958 HIT:     383340 MISS:      81618
LLC LOAD         ACCESS:      89886 HIT:      77733 MISS:      12153
LLC RFO          ACCESS:      85715 HIT:      80328 MISS:       5387
LLC PREFETCH     ACCESS:     158522 HIT:      95396 MISS:      63126
LLC WRITE        ACCESS:     129371 HIT:     129332 MISS:         39
LLC TRANSLATION  ACCESS:       1464 HIT:        551 MISS:        913
LLC PREFETCH REQUESTED:          0 ISSUED:          0 USEFUL:          0 USELESS:          0
LLC AVERAGE MISS LATENCY: 428.3 cycles
cpu0_DTLB TOTAL        ACCESS:    5455138 HIT:    5404619 MISS:      50519
cpu0_DTLB LOAD         ACCESS:    5455138 HIT:    5404619 MISS:      50519
cpu0_DTLB RFO          ACCESS:          0 HIT:          0 MISS:          0
cpu0_DTLB PREFETCH     ACCESS:          0 HIT:          0 MISS:          0
cpu0_DTLB WRITE        ACCESS:          0 HIT:          0 MISS:          0
cpu0_DTLB TRANSLATION  ACCESS:          0 HIT:          0 MISS:          0
cpu0_DTLB PREFETCH REQUESTED:          0 ISSUED:          0 USEFUL:          0 USELESS:          0
cpu0_DTLB AVERAGE MISS LATENCY: 13.12 cycles
cpu0_ITLB TOTAL        ACCESS:      92902 HIT:      89096 MISS:       3806
cpu0_ITLB LOAD         ACCESS:      92902 HIT:      89096 MISS:       3806
cpu0_ITLB RFO          ACCESS:          0 HIT:          0 MISS:          0
cpu0_ITLB PREFETCH     ACCESS:          0 HIT:          0 MISS:          0
cpu0_ITLB WRITE        ACCESS:          0 HIT:          0 MISS:          0
cpu0_ITLB TRANSLATION  ACCESS:          0 HIT:          0 MISS:          0
cpu0_ITLB PREFETCH REQUESTED:          0 ISSUED:          0 USEFUL:          0 USELESS:          0
cpu0_ITLB AVERAGE MISS LATENCY: 1.389 cycles
cpu0_L1D TOTAL        ACCESS:    8800234 HIT:    6582548 MISS:    2217686
cpu0_L1D LOAD         ACCESS:    4557124 HIT:    3622422 MISS:     934702
cpu0_L1D RFO          ACCESS:          0 HIT:          0 MISS:          0
cpu0_L1D PREFETCH     ACCESS:    2351059 HIT:    1692813 MISS:     658246
cpu0_L1D WRITE        ACCESS:    1890363 HIT:    1267254 MISS:     623109
cpu0_L1D TRANSLATION  ACCESS:       1688 HIT:         59 MISS:       1629
cpu0_L1D PREFETCH REQUESTED:    4622429 ISSUED:    2351059 USEFUL:     198284 USELESS:      35230
cpu0_L1D AVERAGE MISS LATENCY: 13.01 cycles
cpu0_L1I TOTAL        ACCESS:     115398 HIT:      58064 MISS:      57334
cpu0_L1I LOAD         ACCESS:     115398 HIT:      58064 MISS:      57334
cpu0_L1I RFO          ACCESS:          0 HIT:          0 MISS:          0
cpu0_L1I PREFETCH     ACCESS:          0 HIT:          0 MISS:          0
cpu0_L1I WRITE        ACCESS:          0 HIT:          0 MISS:          0
cpu0_L1I TRANSLATION  ACCESS:          0 HIT:          0 MISS:          0
cpu0_L1I PREFETCH REQUESTED:          0 ISSUED:          0 USEFUL:          0 USELESS:          0
cpu0_L1I AVERAGE MISS LATENCY: 14.62 cycles
cpu0_L2C TOTAL        ACCESS:    1319209 HIT:     910742 MISS:     408467
cpu0_L2C LOAD         ACCESS:     296607 HIT:     196349 MISS:     100258
cpu0_L2C RFO          ACCESS:     162620 HIT:      76904 MISS:      85716
cpu0_L2C PREFETCH     ACCESS:     621972 HIT:     401042 MISS:     220930
cpu0_L2C WRITE        ACCESS:     236430 HIT:     236331 MISS:         99
cpu0_L2C TRANSLATION  ACCESS:       1580 HIT:        116 MISS:       1464
cpu0_L2C PREFETCH REQUESTED:     388466 ISSUED:     388464 USEFUL:      52990 USELESS:      12718
cpu0_L2C AVERAGE MISS LATENCY: 101.1 cycles
cpu0_STLB TOTAL        ACCESS:      21955 HIT:      20732 MISS:       1223
cpu0_STLB LOAD         ACCESS:      21955 HIT:      20732 MISS:       1223
cpu0_STLB RFO          ACCESS:          0 HIT:          0 MISS:          0
cpu0_STLB PREFETCH     ACCESS:          0 HIT:          0 MISS:          0
cpu0_STLB WRITE        ACCESS:          0 HIT:          0 MISS:          0
cpu0_STLB TRANSLATION  ACCESS:          0 HIT:          0 MISS:          0
cpu0_STLB PREFETCH REQUESTED:          0 ISSUED:          0 USEFUL:          0 USELESS:          0
cpu0_STLB AVERAGE MISS LATENCY: 603.6 cycles

DRAM Statistics

Channel 0 RQ ROW_BUFFER_HIT:      43522
  ROW_BUFFER_MISS:      37539
 AVG DBUS CONGESTED CYCLE: 3.92
WQ ROW_BUFFER_HIT: Channel 0 
  ROW_BUFFER_MISS:       2532
  FULL:      20416
