WARNING: physical memory size is smaller than virtual memory size.

*** ChampSim Multicore Out-of-Order Simulator ***
Warmup Instructions: 25000000
Simulation Instructions: 25000000
Number of CPUs: 1
Page size: 4096

Off-chip DRAM Size: 4 GiB Channels: 1 Width: 64-bit Data Race: 800 MT/s
Heartbeat CPU 0 instructions: 10000001 cycles: 2500103 heartbeat IPC: 4 cumulative IPC: 4 (Simulation time: 00 hr 00 min 31 sec)
Heartbeat CPU 0 instructions: 20000001 cycles: 5000103 heartbeat IPC: 4 cumulative IPC: 4 (Simulation time: 00 hr 01 min 03 sec)
Warmup finished CPU 0 instructions: 25000001 cycles: 6250104 cumulative IPC: 4 (Simulation time: 00 hr 01 min 20 sec)
Warmup complete CPU 0 instructions: 25000001 cycles: 6250104 cumulative IPC: 4 (Simulation time: 00 hr 01 min 20 sec)
Heartbeat CPU 0 instructions: 30000001 cycles: 11734545 heartbeat IPC: 1.485 cumulative IPC: 0.9117 (Simulation time: 00 hr 02 min 08 sec)
Heartbeat CPU 0 instructions: 40000001 cycles: 22718605 heartbeat IPC: 0.9104 cumulative IPC: 0.9108 (Simulation time: 00 hr 03 min 36 sec)
Heartbeat CPU 0 instructions: 50000003 cycles: 33686492 heartbeat IPC: 0.9118 cumulative IPC: 0.9112 (Simulation time: 00 hr 05 min 06 sec)
Simulation finished CPU 0 instructions: 25000002 cycles: 27436389 cumulative IPC: 0.9112 (Simulation time: 00 hr 05 min 06 sec)
Simulation complete CPU 0 instructions: 25000002 cycles: 27436389 cumulative IPC: 0.9112 (Simulation time: 00 hr 05 min 06 sec)

ChampSim completed all CPUs

=== Simulation ===
CPU 0 runs ./traces/649.fotonik3d_s-8225B.champsimtrace.xz
Region of Interest Statistics

CPU 0 cumulative IPC: 0.9112 instructions: 25000002 cycles: 27436389
CPU 0 Branch Prediction Accuracy: 99.98% MPKI: 0.00436 Average ROB Occupancy at Mispredict: 352
Branch type MPKI
BRANCH_DIRECT_JUMP: 0
BRANCH_INDIRECT: 0
BRANCH_CONDITIONAL: 0.00436
BRANCH_DIRECT_CALL: 0
BRANCH_INDIRECT_CALL: 0
BRANCH_RETURN: 0

LLC TOTAL        ACCESS:     552591 HIT:     333014 MISS:     219577
LLC LOAD         ACCESS:      53152 HIT:       3137 MISS:      50015
LLC RFO          ACCESS:        275 HIT:        275 MISS:          0
LLC PREFETCH     ACCESS:     279589 HIT:     110179 MISS:     169410
LLC WRITE        ACCESS:     219445 HIT:     219307 MISS:        138
LLC TRANSLATION  ACCESS:        130 HIT:        116 MISS:         14
LLC PREFETCH REQUESTED:          0 ISSUED:          0 USEFUL:          0 USELESS:          0
LLC AVERAGE MISS LATENCY: 523.8 cycles
cpu0_DTLB TOTAL        ACCESS:    5851585 HIT:    5821767 MISS:      29818
cpu0_DTLB LOAD         ACCESS:    5851585 HIT:    5821767 MISS:      29818
cpu0_DTLB RFO          ACCESS:          0 HIT:          0 MISS:          0
cpu0_DTLB PREFETCH     ACCESS:          0 HIT:          0 MISS:          0
cpu0_DTLB WRITE        ACCESS:          0 HIT:          0 MISS:          0
cpu0_DTLB TRANSLATION  ACCESS:          0 HIT:          0 MISS:          0
cpu0_DTLB PREFETCH REQUESTED:          0 ISSUED:          0 USEFUL:          0 USELESS:          0
cpu0_DTLB AVERAGE MISS LATENCY: 13.79 cycles
cpu0_ITLB TOTAL        ACCESS:          0 HIT:          0 MISS:          0
cpu0_ITLB LOAD         ACCESS:          0 HIT:          0 MISS:          0
cpu0_ITLB RFO          ACCESS:          0 HIT:          0 MISS:          0
cpu0_ITLB PREFETCH     ACCESS:          0 HIT:          0 MISS:          0
cpu0_ITLB WRITE        ACCESS:          0 HIT:          0 MISS:          0
cpu0_ITLB TRANSLATION  ACCESS:          0 HIT:          0 MISS:          0
cpu0_ITLB PREFETCH REQUESTED:          0 ISSUED:          0 USEFUL:          0 USELESS:          0
cpu0_ITLB AVERAGE MISS LATENCY: -nan cycles
cpu0_L1D TOTAL        ACCESS:   12097567 HIT:   10227367 MISS:    1870200
cpu0_L1D LOAD         ACCESS:    6249839 HIT:    5148255 MISS:    1101584
cpu0_L1D RFO          ACCESS:          0 HIT:          0 MISS:          0
cpu0_L1D PREFETCH     ACCESS:    4089147 HIT:    3322013 MISS:     767134
cpu0_L1D WRITE        ACCESS:    1755140 HIT:    1753790 MISS:       1350
cpu0_L1D TRANSLATION  ACCESS:       3441 HIT:       3309 MISS:        132
cpu0_L1D PREFETCH REQUESTED:    6249914 ISSUED:    4089143 USEFUL:     275054 USELESS:       2945
cpu0_L1D AVERAGE MISS LATENCY: 39.92 cycles
cpu0_L1I TOTAL        ACCESS:          0 HIT:          0 MISS:          0
cpu0_L1I LOAD         ACCESS:          0 HIT:          0 MISS:          0
cpu0_L1I RFO          ACCESS:          0 HIT:          0 MISS:          0
cpu0_L1I PREFETCH     ACCESS:          0 HIT:          0 MISS:          0
cpu0_L1I WRITE        ACCESS:          0 HIT:          0 MISS:          0
cpu0_L1I TRANSLATION  ACCESS:          0 HIT:          0 MISS:          0
cpu0_L1I PREFETCH REQUESTED:          0 ISSUED:          0 USEFUL:          0 USELESS:          0
cpu0_L1I AVERAGE MISS LATENCY: -nan cycles
cpu0_L2C TOTAL        ACCESS:     566798 HIT:     222803 MISS:     343995
cpu0_L2C LOAD         ACCESS:      55463 HIT:        534 MISS:      54929
cpu0_L2C RFO          ACCESS:        275 HIT:          0 MISS:        275
cpu0_L2C PREFETCH     ACCESS:     291256 HIT:       2595 MISS:     288661
cpu0_L2C WRITE        ACCESS:     219673 HIT:     219673 MISS:          0
cpu0_L2C TRANSLATION  ACCESS:        131 HIT:          1 MISS:        130
cpu0_L2C PREFETCH REQUESTED:      13261 ISSUED:      13261 USEFUL:       9462 USELESS:         51
cpu0_L2C AVERAGE MISS LATENCY: 354.2 cycles
cpu0_STLB TOTAL        ACCESS:       5885 HIT:       2455 MISS:       3430
cpu0_STLB LOAD         ACCESS:       5885 HIT:       2455 MISS:       3430
cpu0_STLB RFO          ACCESS:          0 HIT:          0 MISS:          0
cpu0_STLB PREFETCH     ACCESS:          0 HIT:          0 MISS:          0
cpu0_STLB WRITE        ACCESS:          0 HIT:          0 MISS:          0
cpu0_STLB TRANSLATION  ACCESS:          0 HIT:          0 MISS:          0
cpu0_STLB PREFETCH REQUESTED:          0 ISSUED:          0 USEFUL:          0 USELESS:          0
cpu0_STLB AVERAGE MISS LATENCY: 211 cycles

DRAM Statistics

Channel 0 RQ ROW_BUFFER_HIT:      41270
  ROW_BUFFER_MISS:     178166
 AVG DBUS CONGESTED CYCLE: 3.949
WQ ROW_BUFFER_HIT: Channel 0 
  ROW_BUFFER_MISS:      27295
  FULL:     191870
