WARNING: physical memory size is smaller than virtual memory size.

*** ChampSim Multicore Out-of-Order Simulator ***
Warmup Instructions: 25000000
Simulation Instructions: 25000000
Number of CPUs: 1
Page size: 4096

Off-chip DRAM Size: 4 GiB Channels: 1 Width: 64-bit Data Race: 800 MT/s
Heartbeat CPU 0 instructions: 10000000 cycles: 3155837 heartbeat IPC: 3.169 cumulative IPC: 3.169 (Simulation time: 00 hr 00 min 43 sec)
Heartbeat CPU 0 instructions: 20000000 cycles: 6311420 heartbeat IPC: 3.169 cumulative IPC: 3.169 (Simulation time: 00 hr 01 min 22 sec)
Warmup finished CPU 0 instructions: 25000003 cycles: 7888960 cumulative IPC: 3.169 (Simulation time: 00 hr 01 min 41 sec)
Warmup complete CPU 0 instructions: 25000003 cycles: 7888960 cumulative IPC: 3.169 (Simulation time: 00 hr 01 min 41 sec)
Heartbeat CPU 0 instructions: 30000000 cycles: 19229079 heartbeat IPC: 0.7741 cumulative IPC: 0.4409 (Simulation time: 00 hr 03 min 05 sec)
Heartbeat CPU 0 instructions: 40000002 cycles: 42492617 heartbeat IPC: 0.4299 cumulative IPC: 0.4335 (Simulation time: 00 hr 06 min 04 sec)
Heartbeat CPU 0 instructions: 50000000 cycles: 65668671 heartbeat IPC: 0.4315 cumulative IPC: 0.4327 (Simulation time: 00 hr 09 min 12 sec)
Simulation finished CPU 0 instructions: 25000001 cycles: 57779713 cumulative IPC: 0.4327 (Simulation time: 00 hr 09 min 12 sec)
Simulation complete CPU 0 instructions: 25000001 cycles: 57779713 cumulative IPC: 0.4327 (Simulation time: 00 hr 09 min 12 sec)

ChampSim completed all CPUs

=== Simulation ===
CPU 0 runs ./traces/649.fotonik3d_s-10881B.champsimtrace.xz
Region of Interest Statistics

CPU 0 cumulative IPC: 0.4327 instructions: 25000001 cycles: 57779713
CPU 0 Branch Prediction Accuracy: 93.33% MPKI: 0.8021 Average ROB Occupancy at Mispredict: 352
Branch type MPKI
BRANCH_DIRECT_JUMP: 0
BRANCH_INDIRECT: 0
BRANCH_CONDITIONAL: 0.802
BRANCH_DIRECT_CALL: 0
BRANCH_INDIRECT_CALL: 0
BRANCH_RETURN: 0

LLC TOTAL        ACCESS:     833218 HIT:     231746 MISS:     601472
LLC LOAD         ACCESS:     277364 HIT:      44387 MISS:     232977
LLC RFO          ACCESS:          0 HIT:          0 MISS:          0
LLC PREFETCH     ACCESS:     301216 HIT:      17821 MISS:     283395
LLC WRITE        ACCESS:     242757 HIT:     162121 MISS:      80636
LLC TRANSLATION  ACCESS:      11881 HIT:       7417 MISS:       4464
LLC PREFETCH REQUESTED:          0 ISSUED:          0 USEFUL:          0 USELESS:          0
LLC AVERAGE MISS LATENCY: 837.5 cycles
cpu0_DTLB TOTAL        ACCESS:    9248968 HIT:    8986173 MISS:     262795
cpu0_DTLB LOAD         ACCESS:    9248968 HIT:    8986173 MISS:     262795
cpu0_DTLB RFO          ACCESS:          0 HIT:          0 MISS:          0
cpu0_DTLB PREFETCH     ACCESS:          0 HIT:          0 MISS:          0
cpu0_DTLB WRITE        ACCESS:          0 HIT:          0 MISS:          0
cpu0_DTLB TRANSLATION  ACCESS:          0 HIT:          0 MISS:          0
cpu0_DTLB PREFETCH REQUESTED:          0 ISSUED:          0 USEFUL:          0 USELESS:          0
cpu0_DTLB AVERAGE MISS LATENCY: 56.13 cycles
cpu0_ITLB TOTAL        ACCESS:          0 HIT:          0 MISS:          0
cpu0_ITLB LOAD         ACCESS:          0 HIT:          0 MISS:          0
cpu0_ITLB RFO          ACCESS:          0 HIT:          0 MISS:          0
cpu0_ITLB PREFETCH     ACCESS:          0 HIT:          0 MISS:          0
cpu0_ITLB WRITE        ACCESS:          0 HIT:          0 MISS:          0
cpu0_ITLB TRANSLATION  ACCESS:          0 HIT:          0 MISS:          0
cpu0_ITLB PREFETCH REQUESTED:          0 ISSUED:          0 USEFUL:          0 USELESS:          0
cpu0_ITLB AVERAGE MISS LATENCY: -nan cycles
cpu0_L1D TOTAL        ACCESS:   12301352 HIT:   10871957 MISS:    1429395
cpu0_L1D LOAD         ACCESS:    8990818 HIT:    8148000 MISS:     842818
cpu0_L1D RFO          ACCESS:          0 HIT:          0 MISS:          0
cpu0_L1D PREFETCH     ACCESS:    1622681 HIT:    1120248 MISS:     502433
cpu0_L1D WRITE        ACCESS:    1602830 HIT:    1602823 MISS:          7
cpu0_L1D TRANSLATION  ACCESS:      85023 HIT:        886 MISS:      84137
cpu0_L1D PREFETCH REQUESTED:    9981121 ISSUED:    1622677 USEFUL:     182802 USELESS:      82624
cpu0_L1D AVERAGE MISS LATENCY: 273.1 cycles
cpu0_L1I TOTAL        ACCESS:          0 HIT:          0 MISS:          0
cpu0_L1I LOAD         ACCESS:          0 HIT:          0 MISS:          0
cpu0_L1I RFO          ACCESS:          0 HIT:          0 MISS:          0
cpu0_L1I PREFETCH     ACCESS:          0 HIT:          0 MISS:          0
cpu0_L1I WRITE        ACCESS:          0 HIT:          0 MISS:          0
cpu0_L1I TRANSLATION  ACCESS:          0 HIT:          0 MISS:          0
cpu0_L1I PREFETCH REQUESTED:          0 ISSUED:          0 USEFUL:          0 USELESS:          0
cpu0_L1I AVERAGE MISS LATENCY: -nan cycles
cpu0_L2C TOTAL        ACCESS:     965114 HIT:     370772 MISS:     594342
cpu0_L2C LOAD         ACCESS:     298238 HIT:      20763 MISS:     277475
cpu0_L2C RFO          ACCESS:          6 HIT:          6 MISS:          0
cpu0_L2C PREFETCH     ACCESS:     339841 HIT:      34855 MISS:     304986
cpu0_L2C WRITE        ACCESS:     242892 HIT:     242892 MISS:          0
cpu0_L2C TRANSLATION  ACCESS:      84137 HIT:      72256 MISS:      11881
cpu0_L2C PREFETCH REQUESTED:      74374 ISSUED:      74374 USEFUL:      36325 USELESS:      16466
cpu0_L2C AVERAGE MISS LATENCY: 866.2 cycles
cpu0_STLB TOTAL        ACCESS:     115096 HIT:      30205 MISS:      84891
cpu0_STLB LOAD         ACCESS:     115096 HIT:      30205 MISS:      84891
cpu0_STLB RFO          ACCESS:          0 HIT:          0 MISS:          0
cpu0_STLB PREFETCH     ACCESS:          0 HIT:          0 MISS:          0
cpu0_STLB WRITE        ACCESS:          0 HIT:          0 MISS:          0
cpu0_STLB TRANSLATION  ACCESS:          0 HIT:          0 MISS:          0
cpu0_STLB PREFETCH REQUESTED:          0 ISSUED:          0 USEFUL:          0 USELESS:          0
cpu0_STLB AVERAGE MISS LATENCY: 254.5 cycles

DRAM Statistics

Channel 0 RQ ROW_BUFFER_HIT:     180694
  ROW_BUFFER_MISS:     340095
 AVG DBUS CONGESTED CYCLE: 3.913
WQ ROW_BUFFER_HIT: Channel 0 
  ROW_BUFFER_MISS:       1221
  FULL:     240218
