WARNING: physical memory size is smaller than virtual memory size.

*** ChampSim Multicore Out-of-Order Simulator ***
Warmup Instructions: 25000000
Simulation Instructions: 25000000
Number of CPUs: 1
Page size: 4096

Off-chip DRAM Size: 4 GiB Channels: 1 Width: 64-bit Data Race: 800 MT/s
Heartbeat CPU 0 instructions: 10000002 cycles: 2500102 heartbeat IPC: 4 cumulative IPC: 4 (Simulation time: 00 hr 00 min 28 sec)
Heartbeat CPU 0 instructions: 20000002 cycles: 5000102 heartbeat IPC: 4 cumulative IPC: 4 (Simulation time: 00 hr 00 min 56 sec)
Warmup finished CPU 0 instructions: 25000002 cycles: 6250103 cumulative IPC: 4 (Simulation time: 00 hr 01 min 11 sec)
Warmup complete CPU 0 instructions: 25000002 cycles: 6250103 cumulative IPC: 4 (Simulation time: 00 hr 01 min 11 sec)
Heartbeat CPU 0 instructions: 30000003 cycles: 11718872 heartbeat IPC: 1.488 cumulative IPC: 0.9143 (Simulation time: 00 hr 01 min 54 sec)
Heartbeat CPU 0 instructions: 40000001 cycles: 22650675 heartbeat IPC: 0.9148 cumulative IPC: 0.9146 (Simulation time: 00 hr 03 min 22 sec)
Heartbeat CPU 0 instructions: 50000001 cycles: 33581025 heartbeat IPC: 0.9149 cumulative IPC: 0.9147 (Simulation time: 00 hr 04 min 51 sec)
Simulation finished CPU 0 instructions: 25000003 cycles: 27330924 cumulative IPC: 0.9147 (Simulation time: 00 hr 04 min 51 sec)
Simulation complete CPU 0 instructions: 25000003 cycles: 27330924 cumulative IPC: 0.9147 (Simulation time: 00 hr 04 min 51 sec)

ChampSim completed all CPUs

=== Simulation ===
CPU 0 runs ./traces/649.fotonik3d_s-1176B.champsimtrace.xz
Region of Interest Statistics

CPU 0 cumulative IPC: 0.9147 instructions: 25000003 cycles: 27330924
CPU 0 Branch Prediction Accuracy: 99.97% MPKI: 0.0044 Average ROB Occupancy at Mispredict: 352
Branch type MPKI
BRANCH_DIRECT_JUMP: 0
BRANCH_INDIRECT: 0
BRANCH_CONDITIONAL: 0.0044
BRANCH_DIRECT_CALL: 0
BRANCH_INDIRECT_CALL: 0
BRANCH_RETURN: 0

LLC TOTAL        ACCESS:     552673 HIT:     332946 MISS:     219727
LLC LOAD         ACCESS:      53343 HIT:       3181 MISS:      50162
LLC RFO          ACCESS:        330 HIT:        330 MISS:          0
LLC PREFETCH     ACCESS:     279405 HIT:     110221 MISS:     169184
LLC WRITE        ACCESS:     219449 HIT:     219095 MISS:        354
LLC TRANSLATION  ACCESS:        146 HIT:        119 MISS:         27
LLC PREFETCH REQUESTED:          0 ISSUED:          0 USEFUL:          0 USELESS:          0
LLC AVERAGE MISS LATENCY: 520.8 cycles
cpu0_DTLB TOTAL        ACCESS:    5851457 HIT:    5821469 MISS:      29988
cpu0_DTLB LOAD         ACCESS:    5851457 HIT:    5821469 MISS:      29988
cpu0_DTLB RFO          ACCESS:          0 HIT:          0 MISS:          0
cpu0_DTLB PREFETCH     ACCESS:          0 HIT:          0 MISS:          0
cpu0_DTLB WRITE        ACCESS:          0 HIT:          0 MISS:          0
cpu0_DTLB TRANSLATION  ACCESS:          0 HIT:          0 MISS:          0
cpu0_DTLB PREFETCH REQUESTED:          0 ISSUED:          0 USEFUL:          0 USELESS:          0
cpu0_DTLB AVERAGE MISS LATENCY: 13.96 cycles
cpu0_ITLB TOTAL        ACCESS:          0 HIT:          0 MISS:          0
cpu0_ITLB LOAD         ACCESS:          0 HIT:          0 MISS:          0
cpu0_ITLB RFO          ACCESS:          0 HIT:          0 MISS:          0
cpu0_ITLB PREFETCH     ACCESS:          0 HIT:          0 MISS:          0
cpu0_ITLB WRITE        ACCESS:          0 HIT:          0 MISS:          0
cpu0_ITLB TRANSLATION  ACCESS:          0 HIT:          0 MISS:          0
cpu0_ITLB PREFETCH REQUESTED:          0 ISSUED:          0 USEFUL:          0 USELESS:          0
cpu0_ITLB AVERAGE MISS LATENCY: -nan cycles
cpu0_L1D TOTAL        ACCESS:   12096313 HIT:   10226890 MISS:    1869423
cpu0_L1D LOAD         ACCESS:    6249712 HIT:    5148337 MISS:    1101375
cpu0_L1D RFO          ACCESS:          0 HIT:          0 MISS:          0
cpu0_L1D PREFETCH     ACCESS:    4088006 HIT:    3321528 MISS:     766478
cpu0_L1D WRITE        ACCESS:    1755140 HIT:    1753719 MISS:       1421
cpu0_L1D TRANSLATION  ACCESS:       3455 HIT:       3306 MISS:        149
cpu0_L1D PREFETCH REQUESTED:    6249758 ISSUED:    4088006 USEFUL:     274899 USELESS:       2940
cpu0_L1D AVERAGE MISS LATENCY: 39.74 cycles
cpu0_L1I TOTAL        ACCESS:          0 HIT:          0 MISS:          0
cpu0_L1I LOAD         ACCESS:          0 HIT:          0 MISS:          0
cpu0_L1I RFO          ACCESS:          0 HIT:          0 MISS:          0
cpu0_L1I PREFETCH     ACCESS:          0 HIT:          0 MISS:          0
cpu0_L1I WRITE        ACCESS:          0 HIT:          0 MISS:          0
cpu0_L1I TRANSLATION  ACCESS:          0 HIT:          0 MISS:          0
cpu0_L1I PREFETCH REQUESTED:          0 ISSUED:          0 USEFUL:          0 USELESS:          0
cpu0_L1I AVERAGE MISS LATENCY: -nan cycles
cpu0_L2C TOTAL        ACCESS:     566920 HIT:     222688 MISS:     344232
cpu0_L2C LOAD         ACCESS:      55567 HIT:        431 MISS:      55136
cpu0_L2C RFO          ACCESS:        330 HIT:          0 MISS:        330
cpu0_L2C PREFETCH     ACCESS:     291223 HIT:       2603 MISS:     288620
cpu0_L2C WRITE        ACCESS:     219654 HIT:     219654 MISS:          0
cpu0_L2C TRANSLATION  ACCESS:        146 HIT:          0 MISS:        146
cpu0_L2C PREFETCH REQUESTED:      13367 ISSUED:      13367 USEFUL:       9499 USELESS:         53
cpu0_L2C AVERAGE MISS LATENCY: 352.2 cycles
cpu0_STLB TOTAL        ACCESS:       5798 HIT:       2362 MISS:       3436
cpu0_STLB LOAD         ACCESS:       5798 HIT:       2362 MISS:       3436
cpu0_STLB RFO          ACCESS:          0 HIT:          0 MISS:          0
cpu0_STLB PREFETCH     ACCESS:          0 HIT:          0 MISS:          0
cpu0_STLB WRITE        ACCESS:          0 HIT:          0 MISS:          0
cpu0_STLB TRANSLATION  ACCESS:          0 HIT:          0 MISS:          0
cpu0_STLB PREFETCH REQUESTED:          0 ISSUED:          0 USEFUL:          0 USELESS:          0
cpu0_STLB AVERAGE MISS LATENCY: 214.2 cycles

DRAM Statistics

Channel 0 RQ ROW_BUFFER_HIT:      41464
  ROW_BUFFER_MISS:     177903
 AVG DBUS CONGESTED CYCLE: 3.944
WQ ROW_BUFFER_HIT: Channel 0 
  ROW_BUFFER_MISS:      33937
  FULL:     185240
