WARNING: physical memory size is smaller than virtual memory size.

*** ChampSim Multicore Out-of-Order Simulator ***
Warmup Instructions: 25000000
Simulation Instructions: 25000000
Number of CPUs: 1
Page size: 4096

Off-chip DRAM Size: 4 GiB Channels: 1 Width: 64-bit Data Race: 800 MT/s
Heartbeat CPU 0 instructions: 10000000 cycles: 2500125 heartbeat IPC: 4 cumulative IPC: 4 (Simulation time: 00 hr 00 min 31 sec)
Heartbeat CPU 0 instructions: 20000001 cycles: 5000145 heartbeat IPC: 4 cumulative IPC: 4 (Simulation time: 00 hr 01 min 00 sec)
Warmup finished CPU 0 instructions: 25000001 cycles: 6250146 cumulative IPC: 4 (Simulation time: 00 hr 01 min 16 sec)
Warmup complete CPU 0 instructions: 25000001 cycles: 6250146 cumulative IPC: 4 (Simulation time: 00 hr 01 min 16 sec)
Heartbeat CPU 0 instructions: 30000000 cycles: 13894970 heartbeat IPC: 1.124 cumulative IPC: 0.654 (Simulation time: 00 hr 02 min 19 sec)
Heartbeat CPU 0 instructions: 40000002 cycles: 29512329 heartbeat IPC: 0.6403 cumulative IPC: 0.6448 (Simulation time: 00 hr 04 min 21 sec)
Heartbeat CPU 0 instructions: 50000000 cycles: 44975032 heartbeat IPC: 0.6467 cumulative IPC: 0.6456 (Simulation time: 00 hr 06 min 15 sec)
Simulation finished CPU 0 instructions: 25000003 cycles: 38724888 cumulative IPC: 0.6456 (Simulation time: 00 hr 06 min 15 sec)
Simulation complete CPU 0 instructions: 25000003 cycles: 38724888 cumulative IPC: 0.6456 (Simulation time: 00 hr 06 min 15 sec)

ChampSim completed all CPUs

=== Simulation ===
CPU 0 runs ./traces/649.fotonik3d_s-7084B.champsimtrace.xz
Region of Interest Statistics

CPU 0 cumulative IPC: 0.6456 instructions: 25000003 cycles: 38724888
CPU 0 Branch Prediction Accuracy: 99.19% MPKI: 0.05616 Average ROB Occupancy at Mispredict: 352
Branch type MPKI
BRANCH_DIRECT_JUMP: 0
BRANCH_INDIRECT: 0
BRANCH_CONDITIONAL: 0.0562
BRANCH_DIRECT_CALL: 0
BRANCH_INDIRECT_CALL: 0
BRANCH_RETURN: 0

LLC TOTAL        ACCESS:     551293 HIT:     123200 MISS:     428093
LLC LOAD         ACCESS:      45911 HIT:         22 MISS:      45889
LLC RFO          ACCESS:          0 HIT:          0 MISS:          0
LLC PREFETCH     ACCESS:     375095 HIT:        100 MISS:     374995
LLC WRITE        ACCESS:     129802 HIT:     122699 MISS:       7103
LLC TRANSLATION  ACCESS:        485 HIT:        379 MISS:        106
LLC PREFETCH REQUESTED:          0 ISSUED:          0 USEFUL:          0 USELESS:          0
LLC AVERAGE MISS LATENCY: 908.8 cycles
cpu0_DTLB TOTAL        ACCESS:    6190443 HIT:    6165499 MISS:      24944
cpu0_DTLB LOAD         ACCESS:    6190443 HIT:    6165499 MISS:      24944
cpu0_DTLB RFO          ACCESS:          0 HIT:          0 MISS:          0
cpu0_DTLB PREFETCH     ACCESS:          0 HIT:          0 MISS:          0
cpu0_DTLB WRITE        ACCESS:          0 HIT:          0 MISS:          0
cpu0_DTLB TRANSLATION  ACCESS:          0 HIT:          0 MISS:          0
cpu0_DTLB PREFETCH REQUESTED:          0 ISSUED:          0 USEFUL:          0 USELESS:          0
cpu0_DTLB AVERAGE MISS LATENCY: 41.84 cycles
cpu0_ITLB TOTAL        ACCESS:          0 HIT:          0 MISS:          0
cpu0_ITLB LOAD         ACCESS:          0 HIT:          0 MISS:          0
cpu0_ITLB RFO          ACCESS:          0 HIT:          0 MISS:          0
cpu0_ITLB PREFETCH     ACCESS:          0 HIT:          0 MISS:          0
cpu0_ITLB WRITE        ACCESS:          0 HIT:          0 MISS:          0
cpu0_ITLB TRANSLATION  ACCESS:          0 HIT:          0 MISS:          0
cpu0_ITLB PREFETCH REQUESTED:          0 ISSUED:          0 USEFUL:          0 USELESS:          0
cpu0_ITLB AVERAGE MISS LATENCY: -nan cycles
cpu0_L1D TOTAL        ACCESS:   10767827 HIT:    8980225 MISS:    1787602
cpu0_L1D LOAD         ACCESS:    6522357 HIT:    5792934 MISS:     729423
cpu0_L1D RFO          ACCESS:          0 HIT:          0 MISS:          0
cpu0_L1D PREFETCH     ACCESS:    3010411 HIT:    1959047 MISS:    1051364
cpu0_L1D WRITE        ACCESS:    1228224 HIT:    1228220 MISS:          4
cpu0_L1D TRANSLATION  ACCESS:       6835 HIT:         24 MISS:       6811
cpu0_L1D PREFETCH REQUESTED:    6929453 ISSUED:    3010411 USEFUL:     337923 USELESS:      13752
cpu0_L1D AVERAGE MISS LATENCY: 124.4 cycles
cpu0_L1I TOTAL        ACCESS:          0 HIT:          0 MISS:          0
cpu0_L1I LOAD         ACCESS:          0 HIT:          0 MISS:          0
cpu0_L1I RFO          ACCESS:          0 HIT:          0 MISS:          0
cpu0_L1I PREFETCH     ACCESS:          0 HIT:          0 MISS:          0
cpu0_L1I WRITE        ACCESS:          0 HIT:          0 MISS:          0
cpu0_L1I TRANSLATION  ACCESS:          0 HIT:          0 MISS:          0
cpu0_L1I PREFETCH REQUESTED:          0 ISSUED:          0 USEFUL:          0 USELESS:          0
cpu0_L1I AVERAGE MISS LATENCY: -nan cycles
cpu0_L2C TOTAL        ACCESS:     685325 HIT:     245713 MISS:     439612
cpu0_L2C LOAD         ACCESS:      85723 HIT:      39092 MISS:      46631
cpu0_L2C RFO          ACCESS:          4 HIT:          4 MISS:          0
cpu0_L2C PREFETCH     ACCESS:     462214 HIT:      69778 MISS:     392436
cpu0_L2C WRITE        ACCESS:     130573 HIT:     130513 MISS:         60
cpu0_L2C TRANSLATION  ACCESS:       6811 HIT:       6326 MISS:        485
cpu0_L2C PREFETCH REQUESTED:     110537 ISSUED:     110537 USEFUL:      39793 USELESS:       3282
cpu0_L2C AVERAGE MISS LATENCY: 903.7 cycles
cpu0_STLB TOTAL        ACCESS:      13940 HIT:       7117 MISS:       6823
cpu0_STLB LOAD         ACCESS:      13940 HIT:       7117 MISS:       6823
cpu0_STLB RFO          ACCESS:          0 HIT:          0 MISS:          0
cpu0_STLB PREFETCH     ACCESS:          0 HIT:          0 MISS:          0
cpu0_STLB WRITE        ACCESS:          0 HIT:          0 MISS:          0
cpu0_STLB TRANSLATION  ACCESS:          0 HIT:          0 MISS:          0
cpu0_STLB PREFETCH REQUESTED:          0 ISSUED:          0 USEFUL:          0 USELESS:          0
cpu0_STLB AVERAGE MISS LATENCY: 200.2 cycles

DRAM Statistics

Channel 0 RQ ROW_BUFFER_HIT:     178473
  ROW_BUFFER_MISS:     242497
 AVG DBUS CONGESTED CYCLE: 3.872
WQ ROW_BUFFER_HIT: Channel 0 
  ROW_BUFFER_MISS:       7067
  FULL:     121960
