WARNING: physical memory size is smaller than virtual memory size.

*** ChampSim Multicore Out-of-Order Simulator ***
Warmup Instructions: 25000000
Simulation Instructions: 25000000
Number of CPUs: 1
Page size: 4096

Off-chip DRAM Size: 4 GiB Channels: 1 Width: 64-bit Data Race: 800 MT/s
Heartbeat CPU 0 instructions: 10000003 cycles: 2500108 heartbeat IPC: 4 cumulative IPC: 4 (Simulation time: 00 hr 00 min 35 sec)
Heartbeat CPU 0 instructions: 20000003 cycles: 5000108 heartbeat IPC: 4 cumulative IPC: 4 (Simulation time: 00 hr 01 min 08 sec)
Warmup finished CPU 0 instructions: 25000003 cycles: 6250109 cumulative IPC: 4 (Simulation time: 00 hr 01 min 25 sec)
Warmup complete CPU 0 instructions: 25000003 cycles: 6250109 cumulative IPC: 4 (Simulation time: 00 hr 01 min 25 sec)
Heartbeat CPU 0 instructions: 30000000 cycles: 24096198 heartbeat IPC: 0.5237 cumulative IPC: 0.2802 (Simulation time: 00 hr 03 min 26 sec)
Heartbeat CPU 0 instructions: 40000002 cycles: 48397323 heartbeat IPC: 0.4115 cumulative IPC: 0.3559 (Simulation time: 00 hr 06 min 13 sec)
Heartbeat CPU 0 instructions: 50000002 cycles: 64503969 heartbeat IPC: 0.6209 cumulative IPC: 0.4292 (Simulation time: 00 hr 08 min 17 sec)
Simulation finished CPU 0 instructions: 25000003 cycles: 58253862 cumulative IPC: 0.4292 (Simulation time: 00 hr 08 min 17 sec)
Simulation complete CPU 0 instructions: 25000003 cycles: 58253862 cumulative IPC: 0.4292 (Simulation time: 00 hr 08 min 17 sec)

ChampSim completed all CPUs

=== Simulation ===
CPU 0 runs ./traces/654.roms_s-1070B.champsimtrace.xz
Region of Interest Statistics

CPU 0 cumulative IPC: 0.4292 instructions: 25000003 cycles: 58253862
CPU 0 Branch Prediction Accuracy: 99.88% MPKI: 0.06228 Average ROB Occupancy at Mispredict: 351.7
Branch type MPKI
BRANCH_DIRECT_JUMP: 0
BRANCH_INDIRECT: 0
BRANCH_CONDITIONAL: 0.0623
BRANCH_DIRECT_CALL: 0
BRANCH_INDIRECT_CALL: 0
BRANCH_RETURN: 0

LLC TOTAL        ACCESS:     731830 HIT:     126895 MISS:     604935
LLC LOAD         ACCESS:      45032 HIT:       4443 MISS:      40589
LLC RFO          ACCESS:     167090 HIT:          6 MISS:     167084
LLC PREFETCH     ACCESS:     349816 HIT:      31513 MISS:     318303
LLC WRITE        ACCESS:     167085 HIT:      90657 MISS:      76428
LLC TRANSLATION  ACCESS:       2807 HIT:        276 MISS:       2531
LLC PREFETCH REQUESTED:          0 ISSUED:          0 USEFUL:          0 USELESS:          0
LLC AVERAGE MISS LATENCY: 1071 cycles
cpu0_DTLB TOTAL        ACCESS:    6567320 HIT:    6507237 MISS:      60083
cpu0_DTLB LOAD         ACCESS:    6567320 HIT:    6507237 MISS:      60083
cpu0_DTLB RFO          ACCESS:          0 HIT:          0 MISS:          0
cpu0_DTLB PREFETCH     ACCESS:          0 HIT:          0 MISS:          0
cpu0_DTLB WRITE        ACCESS:          0 HIT:          0 MISS:          0
cpu0_DTLB TRANSLATION  ACCESS:          0 HIT:          0 MISS:          0
cpu0_DTLB PREFETCH REQUESTED:          0 ISSUED:          0 USEFUL:          0 USELESS:          0
cpu0_DTLB AVERAGE MISS LATENCY: 39.51 cycles
cpu0_ITLB TOTAL        ACCESS:          0 HIT:          0 MISS:          0
cpu0_ITLB LOAD         ACCESS:          0 HIT:          0 MISS:          0
cpu0_ITLB RFO          ACCESS:          0 HIT:          0 MISS:          0
cpu0_ITLB PREFETCH     ACCESS:          0 HIT:          0 MISS:          0
cpu0_ITLB WRITE        ACCESS:          0 HIT:          0 MISS:          0
cpu0_ITLB TRANSLATION  ACCESS:          0 HIT:          0 MISS:          0
cpu0_ITLB PREFETCH REQUESTED:          0 ISSUED:          0 USEFUL:          0 USELESS:          0
cpu0_ITLB AVERAGE MISS LATENCY: -nan cycles
cpu0_L1D TOTAL        ACCESS:   10975573 HIT:    5636969 MISS:    5338604
cpu0_L1D LOAD         ACCESS:    6975938 HIT:    4452983 MISS:    2522955
cpu0_L1D RFO          ACCESS:          0 HIT:          0 MISS:          0
cpu0_L1D PREFETCH     ACCESS:    2658466 HIT:    1132841 MISS:    1525625
cpu0_L1D WRITE        ACCESS:    1329057 HIT:      50014 MISS:    1279043
cpu0_L1D TRANSLATION  ACCESS:      12112 HIT:       1131 MISS:      10981
cpu0_L1D PREFETCH REQUESTED:    8258592 ISSUED:    2658463 USEFUL:     321942 USELESS:       6127
cpu0_L1D AVERAGE MISS LATENCY: 67.05 cycles
cpu0_L1I TOTAL        ACCESS:          0 HIT:          0 MISS:          0
cpu0_L1I LOAD         ACCESS:          0 HIT:          0 MISS:          0
cpu0_L1I RFO          ACCESS:          0 HIT:          0 MISS:          0
cpu0_L1I PREFETCH     ACCESS:          0 HIT:          0 MISS:          0
cpu0_L1I WRITE        ACCESS:          0 HIT:          0 MISS:          0
cpu0_L1I TRANSLATION  ACCESS:          0 HIT:          0 MISS:          0
cpu0_L1I PREFETCH REQUESTED:          0 ISSUED:          0 USEFUL:          0 USELESS:          0
cpu0_L1I AVERAGE MISS LATENCY: -nan cycles
cpu0_L2C TOTAL        ACCESS:     769932 HIT:     194086 MISS:     575846
cpu0_L2C LOAD         ACCESS:      55915 HIT:       8724 MISS:      47191
cpu0_L2C RFO          ACCESS:     167090 HIT:          0 MISS:     167090
cpu0_L2C PREFETCH     ACCESS:     367785 HIT:       9033 MISS:     358752
cpu0_L2C WRITE        ACCESS:     168161 HIT:     168155 MISS:          6
cpu0_L2C TRANSLATION  ACCESS:      10981 HIT:       8174 MISS:       2807
cpu0_L2C PREFETCH REQUESTED:      39718 ISSUED:      39718 USEFUL:       9346 USELESS:       4440
cpu0_L2C AVERAGE MISS LATENCY: 1128 cycles
cpu0_STLB TOTAL        ACCESS:      12085 HIT:          6 MISS:      12079
cpu0_STLB LOAD         ACCESS:      12085 HIT:          6 MISS:      12079
cpu0_STLB RFO          ACCESS:          0 HIT:          0 MISS:          0
cpu0_STLB PREFETCH     ACCESS:          0 HIT:          0 MISS:          0
cpu0_STLB WRITE        ACCESS:          0 HIT:          0 MISS:          0
cpu0_STLB TRANSLATION  ACCESS:          0 HIT:          0 MISS:          0
cpu0_STLB PREFETCH REQUESTED:          0 ISSUED:          0 USEFUL:          0 USELESS:          0
cpu0_STLB AVERAGE MISS LATENCY: 405.2 cycles

DRAM Statistics

Channel 0 RQ ROW_BUFFER_HIT:      94809
  ROW_BUFFER_MISS:     422391
 AVG DBUS CONGESTED CYCLE: 3.947
WQ ROW_BUFFER_HIT: Channel 0 
  ROW_BUFFER_MISS:      13762
  FULL:     137881
