WARNING: physical memory size is smaller than virtual memory size.

*** ChampSim Multicore Out-of-Order Simulator ***
Warmup Instructions: 25000000
Simulation Instructions: 25000000
Number of CPUs: 1
Page size: 4096

Off-chip DRAM Size: 4 GiB Channels: 1 Width: 64-bit Data Race: 800 MT/s
Heartbeat CPU 0 instructions: 10000003 cycles: 2500445 heartbeat IPC: 3.999 cumulative IPC: 3.999 (Simulation time: 00 hr 00 min 28 sec)
Heartbeat CPU 0 instructions: 20000003 cycles: 5001144 heartbeat IPC: 3.999 cumulative IPC: 3.999 (Simulation time: 00 hr 00 min 55 sec)
Warmup finished CPU 0 instructions: 25000003 cycles: 6251145 cumulative IPC: 3.999 (Simulation time: 00 hr 01 min 09 sec)
Warmup complete CPU 0 instructions: 25000003 cycles: 6251145 cumulative IPC: 3.999 (Simulation time: 00 hr 01 min 09 sec)
Heartbeat CPU 0 instructions: 30000002 cycles: 9437351 heartbeat IPC: 2.254 cumulative IPC: 1.569 (Simulation time: 00 hr 01 min 37 sec)
Heartbeat CPU 0 instructions: 40000002 cycles: 17129708 heartbeat IPC: 1.3 cumulative IPC: 1.379 (Simulation time: 00 hr 02 min 42 sec)
Heartbeat CPU 0 instructions: 50000002 cycles: 22810024 heartbeat IPC: 1.76 cumulative IPC: 1.51 (Simulation time: 00 hr 03 min 34 sec)
Simulation finished CPU 0 instructions: 25000003 cycles: 16558881 cumulative IPC: 1.51 (Simulation time: 00 hr 03 min 34 sec)
Simulation complete CPU 0 instructions: 25000003 cycles: 16558881 cumulative IPC: 1.51 (Simulation time: 00 hr 03 min 34 sec)

ChampSim completed all CPUs

=== Simulation ===
CPU 0 runs ./traces/654.roms_s-293B.champsimtrace.xz
Region of Interest Statistics

CPU 0 cumulative IPC: 1.51 instructions: 25000003 cycles: 16558881
CPU 0 Branch Prediction Accuracy: 99.8% MPKI: 0.02352 Average ROB Occupancy at Mispredict: 347.3
Branch type MPKI
BRANCH_DIRECT_JUMP: 0
BRANCH_INDIRECT: 0
BRANCH_CONDITIONAL: 0.0235
BRANCH_DIRECT_CALL: 0
BRANCH_INDIRECT_CALL: 0
BRANCH_RETURN: 0

LLC TOTAL        ACCESS:     392112 HIT:     242264 MISS:     149848
LLC LOAD         ACCESS:      31555 HIT:      20264 MISS:      11291
LLC RFO          ACCESS:     128294 HIT:      62457 MISS:      65837
LLC PREFETCH     ACCESS:     103066 HIT:      51515 MISS:      51551
LLC WRITE        ACCESS:     125724 HIT:     107560 MISS:      18164
LLC TRANSLATION  ACCESS:       3473 HIT:        468 MISS:       3005
LLC PREFETCH REQUESTED:          0 ISSUED:          0 USEFUL:          0 USELESS:          0
LLC AVERAGE MISS LATENCY: 749.2 cycles
cpu0_DTLB TOTAL        ACCESS:    5908966 HIT:    5886274 MISS:      22692
cpu0_DTLB LOAD         ACCESS:    5908966 HIT:    5886274 MISS:      22692
cpu0_DTLB RFO          ACCESS:          0 HIT:          0 MISS:          0
cpu0_DTLB PREFETCH     ACCESS:          0 HIT:          0 MISS:          0
cpu0_DTLB WRITE        ACCESS:          0 HIT:          0 MISS:          0
cpu0_DTLB TRANSLATION  ACCESS:          0 HIT:          0 MISS:          0
cpu0_DTLB PREFETCH REQUESTED:          0 ISSUED:          0 USEFUL:          0 USELESS:          0
cpu0_DTLB AVERAGE MISS LATENCY: 103.7 cycles
cpu0_ITLB TOTAL        ACCESS:        290 HIT:        290 MISS:          0
cpu0_ITLB LOAD         ACCESS:        290 HIT:        290 MISS:          0
cpu0_ITLB RFO          ACCESS:          0 HIT:          0 MISS:          0
cpu0_ITLB PREFETCH     ACCESS:          0 HIT:          0 MISS:          0
cpu0_ITLB WRITE        ACCESS:          0 HIT:          0 MISS:          0
cpu0_ITLB TRANSLATION  ACCESS:          0 HIT:          0 MISS:          0
cpu0_ITLB PREFETCH REQUESTED:          0 ISSUED:          0 USEFUL:          0 USELESS:          0
cpu0_ITLB AVERAGE MISS LATENCY: -nan cycles
cpu0_L1D TOTAL        ACCESS:    9750054 HIT:    8722401 MISS:    1027653
cpu0_L1D LOAD         ACCESS:    4629610 HIT:    4371260 MISS:     258350
cpu0_L1D RFO          ACCESS:          0 HIT:          0 MISS:          0
cpu0_L1D PREFETCH     ACCESS:    2756204 HIT:    2508990 MISS:     247214
cpu0_L1D WRITE        ACCESS:    2360623 HIT:    1842116 MISS:     518507
cpu0_L1D TRANSLATION  ACCESS:       3617 HIT:         35 MISS:       3582
cpu0_L1D PREFETCH REQUESTED:    5152469 ISSUED:    2756205 USEFUL:      79004 USELESS:       2803
cpu0_L1D AVERAGE MISS LATENCY: 78.74 cycles
cpu0_L1I TOTAL        ACCESS:        392 HIT:        392 MISS:          0
cpu0_L1I LOAD         ACCESS:        392 HIT:        392 MISS:          0
cpu0_L1I RFO          ACCESS:          0 HIT:          0 MISS:          0
cpu0_L1I PREFETCH     ACCESS:          0 HIT:          0 MISS:          0
cpu0_L1I WRITE        ACCESS:          0 HIT:          0 MISS:          0
cpu0_L1I TRANSLATION  ACCESS:          0 HIT:          0 MISS:          0
cpu0_L1I PREFETCH REQUESTED:          0 ISSUED:          0 USEFUL:          0 USELESS:          0
cpu0_L1I AVERAGE MISS LATENCY: -nan cycles
cpu0_L2C TOTAL        ACCESS:     537897 HIT:     256029 MISS:     281868
cpu0_L2C LOAD         ACCESS:      83017 HIT:      46934 MISS:      36083
cpu0_L2C RFO          ACCESS:     128527 HIT:        232 MISS:     128295
cpu0_L2C PREFETCH     ACCESS:     194096 HIT:      80473 MISS:     113623
cpu0_L2C WRITE        ACCESS:     128690 HIT:     128296 MISS:        394
cpu0_L2C TRANSLATION  ACCESS:       3567 HIT:         94 MISS:       3473
cpu0_L2C PREFETCH REQUESTED:     112284 ISSUED:     112284 USEFUL:      36485 USELESS:       2726
cpu0_L2C AVERAGE MISS LATENCY: 411.4 cycles
cpu0_STLB TOTAL        ACCESS:       6307 HIT:       3935 MISS:       2372
cpu0_STLB LOAD         ACCESS:       6307 HIT:       3935 MISS:       2372
cpu0_STLB RFO          ACCESS:          0 HIT:          0 MISS:          0
cpu0_STLB PREFETCH     ACCESS:          0 HIT:          0 MISS:          0
cpu0_STLB WRITE        ACCESS:          0 HIT:          0 MISS:          0
cpu0_STLB TRANSLATION  ACCESS:          0 HIT:          0 MISS:          0
cpu0_STLB PREFETCH REQUESTED:          0 ISSUED:          0 USEFUL:          0 USELESS:          0
cpu0_STLB AVERAGE MISS LATENCY: 1457 cycles

DRAM Statistics

Channel 0 RQ ROW_BUFFER_HIT:      33150
  ROW_BUFFER_MISS:      97128
 AVG DBUS CONGESTED CYCLE: 3.942
WQ ROW_BUFFER_HIT: Channel 0 
  ROW_BUFFER_MISS:       2132
  FULL:      64284
