WARNING: physical memory size is smaller than virtual memory size.

*** ChampSim Multicore Out-of-Order Simulator ***
Warmup Instructions: 25000000
Simulation Instructions: 25000000
Number of CPUs: 1
Page size: 4096

Off-chip DRAM Size: 4 GiB Channels: 1 Width: 64-bit Data Race: 800 MT/s
Heartbeat CPU 0 instructions: 10000000 cycles: 2500349 heartbeat IPC: 3.999 cumulative IPC: 3.999 (Simulation time: 00 hr 00 min 27 sec)
Heartbeat CPU 0 instructions: 20000000 cycles: 5000349 heartbeat IPC: 4 cumulative IPC: 4 (Simulation time: 00 hr 00 min 52 sec)
Warmup finished CPU 0 instructions: 25000000 cycles: 6250350 cumulative IPC: 4 (Simulation time: 00 hr 01 min 07 sec)
Warmup complete CPU 0 instructions: 25000000 cycles: 6250350 cumulative IPC: 4 (Simulation time: 00 hr 01 min 07 sec)
Heartbeat CPU 0 instructions: 30000002 cycles: 20433842 heartbeat IPC: 0.6479 cumulative IPC: 0.3525 (Simulation time: 00 hr 02 min 48 sec)
Heartbeat CPU 0 instructions: 40000001 cycles: 48683882 heartbeat IPC: 0.354 cumulative IPC: 0.3535 (Simulation time: 00 hr 06 min 04 sec)
Heartbeat CPU 0 instructions: 50000003 cycles: 67698486 heartbeat IPC: 0.5259 cumulative IPC: 0.4068 (Simulation time: 00 hr 08 min 26 sec)
Simulation finished CPU 0 instructions: 25000003 cycles: 61448137 cumulative IPC: 0.4068 (Simulation time: 00 hr 08 min 26 sec)
Simulation complete CPU 0 instructions: 25000003 cycles: 61448137 cumulative IPC: 0.4068 (Simulation time: 00 hr 08 min 26 sec)

ChampSim completed all CPUs

=== Simulation ===
CPU 0 runs ./traces/654.roms_s-523B.champsimtrace.xz
Region of Interest Statistics

CPU 0 cumulative IPC: 0.4068 instructions: 25000003 cycles: 61448137
CPU 0 Branch Prediction Accuracy: 99.85% MPKI: 0.09976 Average ROB Occupancy at Mispredict: 350.5
Branch type MPKI
BRANCH_DIRECT_JUMP: 4e-05
BRANCH_INDIRECT: 0
BRANCH_CONDITIONAL: 0.0997
BRANCH_DIRECT_CALL: 0
BRANCH_INDIRECT_CALL: 0
BRANCH_RETURN: 0

LLC TOTAL        ACCESS:     895775 HIT:     168733 MISS:     727042
LLC LOAD         ACCESS:     115677 HIT:       1105 MISS:     114572
LLC RFO          ACCESS:     155878 HIT:          1 MISS:     155877
LLC PREFETCH     ACCESS:     397259 HIT:       3324 MISS:     393935
LLC WRITE        ACCESS:     222662 HIT:     163667 MISS:      58995
LLC TRANSLATION  ACCESS:       4299 HIT:        636 MISS:       3663
LLC PREFETCH REQUESTED:          0 ISSUED:          0 USEFUL:          0 USELESS:          0
LLC AVERAGE MISS LATENCY: 963.3 cycles
cpu0_DTLB TOTAL        ACCESS:    6776042 HIT:    6685541 MISS:      90501
cpu0_DTLB LOAD         ACCESS:    6776042 HIT:    6685541 MISS:      90501
cpu0_DTLB RFO          ACCESS:          0 HIT:          0 MISS:          0
cpu0_DTLB PREFETCH     ACCESS:          0 HIT:          0 MISS:          0
cpu0_DTLB WRITE        ACCESS:          0 HIT:          0 MISS:          0
cpu0_DTLB TRANSLATION  ACCESS:          0 HIT:          0 MISS:          0
cpu0_DTLB PREFETCH REQUESTED:          0 ISSUED:          0 USEFUL:          0 USELESS:          0
cpu0_DTLB AVERAGE MISS LATENCY: 38.47 cycles
cpu0_ITLB TOTAL        ACCESS:         32 HIT:         32 MISS:          0
cpu0_ITLB LOAD         ACCESS:         32 HIT:         32 MISS:          0
cpu0_ITLB RFO          ACCESS:          0 HIT:          0 MISS:          0
cpu0_ITLB PREFETCH     ACCESS:          0 HIT:          0 MISS:          0
cpu0_ITLB WRITE        ACCESS:          0 HIT:          0 MISS:          0
cpu0_ITLB TRANSLATION  ACCESS:          0 HIT:          0 MISS:          0
cpu0_ITLB PREFETCH REQUESTED:          0 ISSUED:          0 USEFUL:          0 USELESS:          0
cpu0_ITLB AVERAGE MISS LATENCY: -nan cycles
cpu0_L1D TOTAL        ACCESS:   11927863 HIT:    5051137 MISS:    6876726
cpu0_L1D LOAD         ACCESS:    7286283 HIT:    3521745 MISS:    3764538
cpu0_L1D RFO          ACCESS:          0 HIT:          0 MISS:          0
cpu0_L1D PREFETCH     ACCESS:    2856468 HIT:     954077 MISS:    1902391
cpu0_L1D WRITE        ACCESS:    1769189 HIT:     572465 MISS:    1196724
cpu0_L1D TRANSLATION  ACCESS:      15923 HIT:       2850 MISS:      13073
cpu0_L1D PREFETCH REQUESTED:    7873901 ISSUED:    2856469 USEFUL:     396381 USELESS:      11130
cpu0_L1D AVERAGE MISS LATENCY: 59.25 cycles
cpu0_L1I TOTAL        ACCESS:         36 HIT:          6 MISS:         30
cpu0_L1I LOAD         ACCESS:         36 HIT:          6 MISS:         30
cpu0_L1I RFO          ACCESS:          0 HIT:          0 MISS:          0
cpu0_L1I PREFETCH     ACCESS:          0 HIT:          0 MISS:          0
cpu0_L1I WRITE        ACCESS:          0 HIT:          0 MISS:          0
cpu0_L1I TRANSLATION  ACCESS:          0 HIT:          0 MISS:          0
cpu0_L1I PREFETCH REQUESTED:          0 ISSUED:          0 USEFUL:          0 USELESS:          0
cpu0_L1I AVERAGE MISS LATENCY: 981 cycles
cpu0_L2C TOTAL        ACCESS:     998866 HIT:     282726 MISS:     716140
cpu0_L2C LOAD         ACCESS:     137328 HIT:      15668 MISS:     121660
cpu0_L2C RFO          ACCESS:     155878 HIT:          0 MISS:     155878
cpu0_L2C PREFETCH     ACCESS:     468873 HIT:      34578 MISS:     434295
cpu0_L2C WRITE        ACCESS:     223718 HIT:     223710 MISS:          8
cpu0_L2C TRANSLATION  ACCESS:      13069 HIT:       8770 MISS:       4299
cpu0_L2C PREFETCH REQUESTED:      61361 ISSUED:      61361 USEFUL:      26524 USELESS:      16459
cpu0_L2C AVERAGE MISS LATENCY: 994.1 cycles
cpu0_STLB TOTAL        ACCESS:      15890 HIT:         12 MISS:      15878
cpu0_STLB LOAD         ACCESS:      15890 HIT:         12 MISS:      15878
cpu0_STLB RFO          ACCESS:          0 HIT:          0 MISS:          0
cpu0_STLB PREFETCH     ACCESS:          0 HIT:          0 MISS:          0
cpu0_STLB WRITE        ACCESS:          0 HIT:          0 MISS:          0
cpu0_STLB TRANSLATION  ACCESS:          0 HIT:          0 MISS:          0
cpu0_STLB PREFETCH REQUESTED:          0 ISSUED:          0 USEFUL:          0 USELESS:          0
cpu0_STLB AVERAGE MISS LATENCY: 419.3 cycles

DRAM Statistics

Channel 0 RQ ROW_BUFFER_HIT:     170680
  ROW_BUFFER_MISS:     496729
 AVG DBUS CONGESTED CYCLE: 3.92
WQ ROW_BUFFER_HIT: Channel 0 
  ROW_BUFFER_MISS:       8423
  FULL:     215300
