WARNING: physical memory size is smaller than virtual memory size.

*** ChampSim Multicore Out-of-Order Simulator ***
Warmup Instructions: 25000000
Simulation Instructions: 25000000
Number of CPUs: 1
Page size: 4096

Off-chip DRAM Size: 4 GiB Channels: 1 Width: 64-bit Data Race: 800 MT/s
Heartbeat CPU 0 instructions: 10000003 cycles: 2858300 heartbeat IPC: 3.499 cumulative IPC: 3.499 (Simulation time: 00 hr 00 min 39 sec)
Heartbeat CPU 0 instructions: 20000002 cycles: 5502778 heartbeat IPC: 3.781 cumulative IPC: 3.635 (Simulation time: 00 hr 01 min 14 sec)
Warmup finished CPU 0 instructions: 25000002 cycles: 6752779 cumulative IPC: 3.702 (Simulation time: 00 hr 01 min 30 sec)
Warmup complete CPU 0 instructions: 25000002 cycles: 6752779 cumulative IPC: 3.702 (Simulation time: 00 hr 01 min 30 sec)
Heartbeat CPU 0 instructions: 30000002 cycles: 24106997 heartbeat IPC: 0.5375 cumulative IPC: 0.2881 (Simulation time: 00 hr 03 min 36 sec)
Heartbeat CPU 0 instructions: 40000001 cycles: 71056246 heartbeat IPC: 0.213 cumulative IPC: 0.2333 (Simulation time: 00 hr 08 min 16 sec)
Heartbeat CPU 0 instructions: 50000003 cycles: 123448253 heartbeat IPC: 0.1909 cumulative IPC: 0.2142 (Simulation time: 00 hr 11 min 41 sec)
Simulation finished CPU 0 instructions: 25000001 cycles: 116695475 cumulative IPC: 0.2142 (Simulation time: 00 hr 11 min 41 sec)
Simulation complete CPU 0 instructions: 25000001 cycles: 116695475 cumulative IPC: 0.2142 (Simulation time: 00 hr 11 min 41 sec)

ChampSim completed all CPUs

=== Simulation ===
CPU 0 runs ./traces/654.roms_s-1390B.champsimtrace.xz
Region of Interest Statistics

CPU 0 cumulative IPC: 0.2142 instructions: 25000001 cycles: 116695475
CPU 0 Branch Prediction Accuracy: 99.8% MPKI: 0.1142 Average ROB Occupancy at Mispredict: 350.7
Branch type MPKI
BRANCH_DIRECT_JUMP: 4e-05
BRANCH_INDIRECT: 0
BRANCH_CONDITIONAL: 0.114
BRANCH_DIRECT_CALL: 0
BRANCH_INDIRECT_CALL: 0
BRANCH_RETURN: 0

LLC TOTAL        ACCESS:    1441285 HIT:     422274 MISS:    1019011
LLC LOAD         ACCESS:     188766 HIT:       4641 MISS:     184125
LLC RFO          ACCESS:     282815 HIT:          0 MISS:     282815
LLC PREFETCH     ACCESS:     514849 HIT:      12430 MISS:     502419
LLC WRITE        ACCESS:     448332 HIT:     403693 MISS:      44639
LLC TRANSLATION  ACCESS:       6523 HIT:       1510 MISS:       5013
LLC PREFETCH REQUESTED:          0 ISSUED:          0 USEFUL:          0 USELESS:          0
LLC AVERAGE MISS LATENCY: 1573 cycles
cpu0_DTLB TOTAL        ACCESS:    7054763 HIT:    6935299 MISS:     119464
cpu0_DTLB LOAD         ACCESS:    7054763 HIT:    6935299 MISS:     119464
cpu0_DTLB RFO          ACCESS:          0 HIT:          0 MISS:          0
cpu0_DTLB PREFETCH     ACCESS:          0 HIT:          0 MISS:          0
cpu0_DTLB WRITE        ACCESS:          0 HIT:          0 MISS:          0
cpu0_DTLB TRANSLATION  ACCESS:          0 HIT:          0 MISS:          0
cpu0_DTLB PREFETCH REQUESTED:          0 ISSUED:          0 USEFUL:          0 USELESS:          0
cpu0_DTLB AVERAGE MISS LATENCY: 66.03 cycles
cpu0_ITLB TOTAL        ACCESS:         96 HIT:         77 MISS:         19
cpu0_ITLB LOAD         ACCESS:         96 HIT:         77 MISS:         19
cpu0_ITLB RFO          ACCESS:          0 HIT:          0 MISS:          0
cpu0_ITLB PREFETCH     ACCESS:          0 HIT:          0 MISS:          0
cpu0_ITLB WRITE        ACCESS:          0 HIT:          0 MISS:          0
cpu0_ITLB TRANSLATION  ACCESS:          0 HIT:          0 MISS:          0
cpu0_ITLB PREFETCH REQUESTED:          0 ISSUED:          0 USEFUL:          0 USELESS:          0
cpu0_ITLB AVERAGE MISS LATENCY: 352.8 cycles
cpu0_L1D TOTAL        ACCESS:   10975801 HIT:    4194009 MISS:    6781792
cpu0_L1D LOAD         ACCESS:    5056511 HIT:    2078271 MISS:    2978240
cpu0_L1D RFO          ACCESS:          0 HIT:          0 MISS:          0
cpu0_L1D PREFETCH     ACCESS:    2338905 HIT:     514133 MISS:    1824772
cpu0_L1D WRITE        ACCESS:    3558557 HIT:    1598076 MISS:    1960481
cpu0_L1D TRANSLATION  ACCESS:      21828 HIT:       3529 MISS:      18299
cpu0_L1D PREFETCH REQUESTED:   11446354 ISSUED:    2338903 USEFUL:     435338 USELESS:      12251
cpu0_L1D AVERAGE MISS LATENCY: 129.2 cycles
cpu0_L1I TOTAL        ACCESS:        139 HIT:         12 MISS:        127
cpu0_L1I LOAD         ACCESS:        139 HIT:         12 MISS:        127
cpu0_L1I RFO          ACCESS:          0 HIT:          0 MISS:          0
cpu0_L1I PREFETCH     ACCESS:          0 HIT:          0 MISS:          0
cpu0_L1I WRITE        ACCESS:          0 HIT:          0 MISS:          0
cpu0_L1I TRANSLATION  ACCESS:          0 HIT:          0 MISS:          0
cpu0_L1I PREFETCH REQUESTED:          0 ISSUED:          0 USEFUL:          0 USELESS:          0
cpu0_L1I AVERAGE MISS LATENCY: 430.6 cycles
cpu0_L2C TOTAL        ACCESS:    1622855 HIT:     530351 MISS:    1092504
cpu0_L2C LOAD         ACCESS:     233606 HIT:      24414 MISS:     209192
cpu0_L2C RFO          ACCESS:     282820 HIT:          5 MISS:     282815
cpu0_L2C PREFETCH     ACCESS:     637521 HIT:      43558 MISS:     593963
cpu0_L2C WRITE        ACCESS:     450610 HIT:     450599 MISS:         11
cpu0_L2C TRANSLATION  ACCESS:      18298 HIT:      11775 MISS:       6523
cpu0_L2C PREFETCH REQUESTED:     189929 ISSUED:     189929 USEFUL:      61807 USELESS:      20691
cpu0_L2C AVERAGE MISS LATENCY: 1442 cycles
cpu0_STLB TOTAL        ACCESS:      31413 HIT:       9676 MISS:      21737
cpu0_STLB LOAD         ACCESS:      31413 HIT:       9676 MISS:      21737
cpu0_STLB RFO          ACCESS:          0 HIT:          0 MISS:          0
cpu0_STLB PREFETCH     ACCESS:          0 HIT:          0 MISS:          0
cpu0_STLB WRITE        ACCESS:          0 HIT:          0 MISS:          0
cpu0_STLB TRANSLATION  ACCESS:          0 HIT:          0 MISS:          0
cpu0_STLB PREFETCH REQUESTED:          0 ISSUED:          0 USEFUL:          0 USELESS:          0
cpu0_STLB AVERAGE MISS LATENCY: 683.6 cycles

DRAM Statistics

Channel 0 RQ ROW_BUFFER_HIT:     212143
  ROW_BUFFER_MISS:     719046
 AVG DBUS CONGESTED CYCLE: 3.945
WQ ROW_BUFFER_HIT: Channel 0 
  ROW_BUFFER_MISS:      20113
  FULL:     419273
