WARNING: physical memory size is smaller than virtual memory size.

*** ChampSim Multicore Out-of-Order Simulator ***
Warmup Instructions: 25000000
Simulation Instructions: 25000000
Number of CPUs: 1
Page size: 4096

Off-chip DRAM Size: 4 GiB Channels: 1 Width: 64-bit Data Race: 800 MT/s
Heartbeat CPU 0 instructions: 10000003 cycles: 2501569 heartbeat IPC: 3.997 cumulative IPC: 3.997 (Simulation time: 00 hr 00 min 31 sec)
Heartbeat CPU 0 instructions: 20000002 cycles: 5003051 heartbeat IPC: 3.998 cumulative IPC: 3.998 (Simulation time: 00 hr 01 min 00 sec)
Warmup finished CPU 0 instructions: 25000000 cycles: 6265427 cumulative IPC: 3.99 (Simulation time: 00 hr 01 min 15 sec)
Warmup complete CPU 0 instructions: 25000000 cycles: 6265427 cumulative IPC: 3.99 (Simulation time: 00 hr 01 min 15 sec)
Heartbeat CPU 0 instructions: 30000003 cycles: 10584287 heartbeat IPC: 1.792 cumulative IPC: 1.158 (Simulation time: 00 hr 01 min 44 sec)
Heartbeat CPU 0 instructions: 40000000 cycles: 19202599 heartbeat IPC: 1.16 cumulative IPC: 1.159 (Simulation time: 00 hr 02 min 44 sec)
Heartbeat CPU 0 instructions: 50000000 cycles: 27995899 heartbeat IPC: 1.137 cumulative IPC: 1.15 (Simulation time: 00 hr 03 min 44 sec)
Simulation finished CPU 0 instructions: 25000000 cycles: 21730473 cumulative IPC: 1.15 (Simulation time: 00 hr 03 min 44 sec)
Simulation complete CPU 0 instructions: 25000000 cycles: 21730473 cumulative IPC: 1.15 (Simulation time: 00 hr 03 min 44 sec)

ChampSim completed all CPUs

=== Simulation ===
CPU 0 runs ./traces/657.xz_s-2302B.champsimtrace.xz
Region of Interest Statistics

CPU 0 cumulative IPC: 1.15 instructions: 25000000 cycles: 21730473
CPU 0 Branch Prediction Accuracy: 85.76% MPKI: 18.42 Average ROB Occupancy at Mispredict: 28.39
Branch type MPKI
BRANCH_DIRECT_JUMP: 0.122
BRANCH_INDIRECT: 1.07
BRANCH_CONDITIONAL: 17.2
BRANCH_DIRECT_CALL: 0
BRANCH_INDIRECT_CALL: 0.00356
BRANCH_RETURN: 0

LLC TOTAL        ACCESS:     309027 HIT:     230696 MISS:      78331
LLC LOAD         ACCESS:      97333 HIT:      63474 MISS:      33859
LLC RFO          ACCESS:       8329 HIT:       4982 MISS:       3347
LLC PREFETCH     ACCESS:     105540 HIT:      65548 MISS:      39992
LLC WRITE        ACCESS:      83362 HIT:      82992 MISS:        370
LLC TRANSLATION  ACCESS:      14463 HIT:      13700 MISS:        763
LLC PREFETCH REQUESTED:          0 ISSUED:          0 USEFUL:          0 USELESS:          0
LLC AVERAGE MISS LATENCY: 264.7 cycles
cpu0_DTLB TOTAL        ACCESS:    5603533 HIT:    5414480 MISS:     189053
cpu0_DTLB LOAD         ACCESS:    5603533 HIT:    5414480 MISS:     189053
cpu0_DTLB RFO          ACCESS:          0 HIT:          0 MISS:          0
cpu0_DTLB PREFETCH     ACCESS:          0 HIT:          0 MISS:          0
cpu0_DTLB WRITE        ACCESS:          0 HIT:          0 MISS:          0
cpu0_DTLB TRANSLATION  ACCESS:          0 HIT:          0 MISS:          0
cpu0_DTLB PREFETCH REQUESTED:          0 ISSUED:          0 USEFUL:          0 USELESS:          0
cpu0_DTLB AVERAGE MISS LATENCY: 11.24 cycles
cpu0_ITLB TOTAL        ACCESS:     224607 HIT:     224607 MISS:          0
cpu0_ITLB LOAD         ACCESS:     224607 HIT:     224607 MISS:          0
cpu0_ITLB RFO          ACCESS:          0 HIT:          0 MISS:          0
cpu0_ITLB PREFETCH     ACCESS:          0 HIT:          0 MISS:          0
cpu0_ITLB WRITE        ACCESS:          0 HIT:          0 MISS:          0
cpu0_ITLB TRANSLATION  ACCESS:          0 HIT:          0 MISS:          0
cpu0_ITLB PREFETCH REQUESTED:          0 ISSUED:          0 USEFUL:          0 USELESS:          0
cpu0_ITLB AVERAGE MISS LATENCY: -nan cycles
cpu0_L1D TOTAL        ACCESS:   11231540 HIT:   10687308 MISS:     544232
cpu0_L1D LOAD         ACCESS:    5035457 HIT:    4795592 MISS:     239865
cpu0_L1D RFO          ACCESS:          0 HIT:          0 MISS:          0
cpu0_L1D PREFETCH     ACCESS:    4210202 HIT:    3959926 MISS:     250276
cpu0_L1D WRITE        ACCESS:    1963735 HIT:    1931136 MISS:      32599
cpu0_L1D TRANSLATION  ACCESS:      22146 HIT:        654 MISS:      21492
cpu0_L1D PREFETCH REQUESTED:    5048451 ISSUED:    4210203 USEFUL:      26056 USELESS:     146512
cpu0_L1D AVERAGE MISS LATENCY: 52.87 cycles
cpu0_L1I TOTAL        ACCESS:     276629 HIT:     276565 MISS:         64
cpu0_L1I LOAD         ACCESS:     276629 HIT:     276565 MISS:         64
cpu0_L1I RFO          ACCESS:          0 HIT:          0 MISS:          0
cpu0_L1I PREFETCH     ACCESS:          0 HIT:          0 MISS:          0
cpu0_L1I WRITE        ACCESS:          0 HIT:          0 MISS:          0
cpu0_L1I TRANSLATION  ACCESS:          0 HIT:          0 MISS:          0
cpu0_L1I PREFETCH REQUESTED:          0 ISSUED:          0 USEFUL:          0 USELESS:          0
cpu0_L1I AVERAGE MISS LATENCY: 138.9 cycles
cpu0_L2C TOTAL        ACCESS:     519782 HIT:     292616 MISS:     227166
cpu0_L2C LOAD         ACCESS:     164799 HIT:      67419 MISS:      97380
cpu0_L2C RFO          ACCESS:      23241 HIT:      14912 MISS:       8329
cpu0_L2C PREFETCH     ACCESS:     178341 HIT:      71853 MISS:     106488
cpu0_L2C WRITE        ACCESS:     131921 HIT:     131415 MISS:        506
cpu0_L2C TRANSLATION  ACCESS:      21480 HIT:       7017 MISS:      14463
cpu0_L2C PREFETCH REQUESTED:       5753 ISSUED:       5753 USEFUL:        418 USELESS:        955
cpu0_L2C AVERAGE MISS LATENCY: 111.5 cycles
cpu0_STLB TOTAL        ACCESS:     148448 HIT:     126310 MISS:      22138
cpu0_STLB LOAD         ACCESS:     148448 HIT:     126310 MISS:      22138
cpu0_STLB RFO          ACCESS:          0 HIT:          0 MISS:          0
cpu0_STLB PREFETCH     ACCESS:          0 HIT:          0 MISS:          0
cpu0_STLB WRITE        ACCESS:          0 HIT:          0 MISS:          0
cpu0_STLB TRANSLATION  ACCESS:          0 HIT:          0 MISS:          0
cpu0_STLB PREFETCH REQUESTED:          0 ISSUED:          0 USEFUL:          0 USELESS:          0
cpu0_STLB AVERAGE MISS LATENCY: 47.2 cycles

DRAM Statistics

Channel 0 RQ ROW_BUFFER_HIT:       1816
  ROW_BUFFER_MISS:      76141
 AVG DBUS CONGESTED CYCLE: 3.952
WQ ROW_BUFFER_HIT: Channel 0 
  ROW_BUFFER_MISS:       7518
  FULL:      28308
