WARNING: physical memory size is smaller than virtual memory size.

*** ChampSim Multicore Out-of-Order Simulator ***
Warmup Instructions: 25000000
Simulation Instructions: 25000000
Number of CPUs: 1
Page size: 4096

Off-chip DRAM Size: 4 GiB Channels: 1 Width: 64-bit Data Race: 800 MT/s
Heartbeat CPU 0 instructions: 10000003 cycles: 2500096 heartbeat IPC: 4 cumulative IPC: 4 (Simulation time: 00 hr 00 min 34 sec)
Heartbeat CPU 0 instructions: 20000003 cycles: 5000096 heartbeat IPC: 4 cumulative IPC: 4 (Simulation time: 00 hr 01 min 11 sec)
Warmup finished CPU 0 instructions: 25000003 cycles: 6250097 cumulative IPC: 4 (Simulation time: 00 hr 01 min 29 sec)
Warmup complete CPU 0 instructions: 25000003 cycles: 6250097 cumulative IPC: 4 (Simulation time: 00 hr 01 min 29 sec)
Heartbeat CPU 0 instructions: 30000001 cycles: 17290782 heartbeat IPC: 0.8136 cumulative IPC: 0.4529 (Simulation time: 00 hr 02 min 36 sec)
Heartbeat CPU 0 instructions: 40000001 cycles: 39390589 heartbeat IPC: 0.4525 cumulative IPC: 0.4526 (Simulation time: 00 hr 04 min 53 sec)
Heartbeat CPU 0 instructions: 50000000 cycles: 61103607 heartbeat IPC: 0.4606 cumulative IPC: 0.4558 (Simulation time: 00 hr 07 min 09 sec)
Simulation finished CPU 0 instructions: 25000001 cycles: 54853512 cumulative IPC: 0.4558 (Simulation time: 00 hr 07 min 09 sec)
Simulation complete CPU 0 instructions: 25000001 cycles: 54853512 cumulative IPC: 0.4558 (Simulation time: 00 hr 07 min 09 sec)

ChampSim completed all CPUs

=== Simulation ===
CPU 0 runs ./traces/astar_23B.trace.xz
Region of Interest Statistics

CPU 0 cumulative IPC: 0.4558 instructions: 25000001 cycles: 54853512
CPU 0 Branch Prediction Accuracy: 72.89% MPKI: 51.75 Average ROB Occupancy at Mispredict: 5.04
Branch type MPKI
BRANCH_DIRECT_JUMP: 0
BRANCH_INDIRECT: 0
BRANCH_CONDITIONAL: 51.7
BRANCH_DIRECT_CALL: 0
BRANCH_INDIRECT_CALL: 0
BRANCH_RETURN: 0

LLC TOTAL        ACCESS:     798911 HIT:     735800 MISS:      63111
LLC LOAD         ACCESS:     583810 HIT:     521530 MISS:      62280
LLC RFO          ACCESS:       5766 HIT:       5661 MISS:        105
LLC PREFETCH     ACCESS:          0 HIT:          0 MISS:          0
LLC WRITE        ACCESS:     201999 HIT:     201736 MISS:        263
LLC TRANSLATION  ACCESS:       7336 HIT:       6873 MISS:        463
LLC PREFETCH REQUESTED:          0 ISSUED:          0 USEFUL:          0 USELESS:          0
LLC AVERAGE MISS LATENCY: 211.2 cycles
cpu0_DTLB TOTAL        ACCESS:    6986629 HIT:    6172255 MISS:     814374
cpu0_DTLB LOAD         ACCESS:    6986629 HIT:    6172255 MISS:     814374
cpu0_DTLB RFO          ACCESS:          0 HIT:          0 MISS:          0
cpu0_DTLB PREFETCH     ACCESS:          0 HIT:          0 MISS:          0
cpu0_DTLB WRITE        ACCESS:          0 HIT:          0 MISS:          0
cpu0_DTLB TRANSLATION  ACCESS:          0 HIT:          0 MISS:          0
cpu0_DTLB PREFETCH REQUESTED:          0 ISSUED:          0 USEFUL:          0 USELESS:          0
cpu0_DTLB AVERAGE MISS LATENCY: 8.177 cycles
cpu0_ITLB TOTAL        ACCESS:          0 HIT:          0 MISS:          0
cpu0_ITLB LOAD         ACCESS:          0 HIT:          0 MISS:          0
cpu0_ITLB RFO          ACCESS:          0 HIT:          0 MISS:          0
cpu0_ITLB PREFETCH     ACCESS:          0 HIT:          0 MISS:          0
cpu0_ITLB WRITE        ACCESS:          0 HIT:          0 MISS:          0
cpu0_ITLB TRANSLATION  ACCESS:          0 HIT:          0 MISS:          0
cpu0_ITLB PREFETCH REQUESTED:          0 ISSUED:          0 USEFUL:          0 USELESS:          0
cpu0_ITLB AVERAGE MISS LATENCY: -nan cycles
cpu0_L1D TOTAL        ACCESS:    7950699 HIT:    6847610 MISS:    1103089
cpu0_L1D LOAD         ACCESS:    6638489 HIT:    5573229 MISS:    1065260
cpu0_L1D RFO          ACCESS:          0 HIT:          0 MISS:          0
cpu0_L1D PREFETCH     ACCESS:          0 HIT:          0 MISS:          0
cpu0_L1D WRITE        ACCESS:    1070052 HIT:    1052248 MISS:      17804
cpu0_L1D TRANSLATION  ACCESS:     242158 HIT:     222133 MISS:      20025
cpu0_L1D PREFETCH REQUESTED:          0 ISSUED:          0 USEFUL:          0 USELESS:          0
cpu0_L1D AVERAGE MISS LATENCY: 30.56 cycles
cpu0_L1I TOTAL        ACCESS:          0 HIT:          0 MISS:          0
cpu0_L1I LOAD         ACCESS:          0 HIT:          0 MISS:          0
cpu0_L1I RFO          ACCESS:          0 HIT:          0 MISS:          0
cpu0_L1I PREFETCH     ACCESS:          0 HIT:          0 MISS:          0
cpu0_L1I WRITE        ACCESS:          0 HIT:          0 MISS:          0
cpu0_L1I TRANSLATION  ACCESS:          0 HIT:          0 MISS:          0
cpu0_L1I PREFETCH REQUESTED:          0 ISSUED:          0 USEFUL:          0 USELESS:          0
cpu0_L1I AVERAGE MISS LATENCY: -nan cycles
cpu0_L2C TOTAL        ACCESS:    1068259 HIT:     471311 MISS:     596948
cpu0_L2C LOAD         ACCESS:     771951 HIT:     188140 MISS:     583811
cpu0_L2C RFO          ACCESS:      16207 HIT:      10441 MISS:       5766
cpu0_L2C PREFETCH     ACCESS:          0 HIT:          0 MISS:          0
cpu0_L2C WRITE        ACCESS:     260606 HIT:     260571 MISS:         35
cpu0_L2C TRANSLATION  ACCESS:      19495 HIT:      12159 MISS:       7336
cpu0_L2C PREFETCH REQUESTED:          0 ISSUED:          0 USEFUL:          0 USELESS:          0
cpu0_L2C AVERAGE MISS LATENCY: 42.44 cycles
cpu0_STLB TOTAL        ACCESS:     622301 HIT:     380145 MISS:     242156
cpu0_STLB LOAD         ACCESS:     622301 HIT:     380145 MISS:     242156
cpu0_STLB RFO          ACCESS:          0 HIT:          0 MISS:          0
cpu0_STLB PREFETCH     ACCESS:          0 HIT:          0 MISS:          0
cpu0_STLB WRITE        ACCESS:          0 HIT:          0 MISS:          0
cpu0_STLB TRANSLATION  ACCESS:          0 HIT:          0 MISS:          0
cpu0_STLB PREFETCH REQUESTED:          0 ISSUED:          0 USEFUL:          0 USELESS:          0
cpu0_STLB AVERAGE MISS LATENCY: 8.43 cycles

DRAM Statistics

Channel 0 RQ ROW_BUFFER_HIT:       6594
  ROW_BUFFER_MISS:      56194
 AVG DBUS CONGESTED CYCLE: 3.923
WQ ROW_BUFFER_HIT: Channel 0 
  ROW_BUFFER_MISS:       3734
  FULL:      32533
