WARNING: physical memory size is smaller than virtual memory size.

*** ChampSim Multicore Out-of-Order Simulator ***
Warmup Instructions: 25000000
Simulation Instructions: 25000000
Number of CPUs: 1
Page size: 4096

Off-chip DRAM Size: 4 GiB Channels: 1 Width: 64-bit Data Race: 800 MT/s
Heartbeat CPU 0 instructions: 10000002 cycles: 2991905 heartbeat IPC: 3.342 cumulative IPC: 3.342 (Simulation time: 00 hr 01 min 14 sec)
Heartbeat CPU 0 instructions: 20000001 cycles: 5655854 heartbeat IPC: 3.754 cumulative IPC: 3.536 (Simulation time: 00 hr 02 min 24 sec)
Warmup finished CPU 0 instructions: 25000000 cycles: 7069783 cumulative IPC: 3.536 (Simulation time: 00 hr 03 min 01 sec)
Warmup complete CPU 0 instructions: 25000000 cycles: 7069783 cumulative IPC: 3.536 (Simulation time: 00 hr 03 min 01 sec)
Heartbeat CPU 0 instructions: 30000003 cycles: 63968795 heartbeat IPC: 0.1715 cumulative IPC: 0.08788 (Simulation time: 00 hr 11 min 30 sec)
Heartbeat CPU 0 instructions: 40000003 cycles: 173965800 heartbeat IPC: 0.09091 cumulative IPC: 0.08988 (Simulation time: 00 hr 27 min 25 sec)
Heartbeat CPU 0 instructions: 50000001 cycles: 271901688 heartbeat IPC: 0.1021 cumulative IPC: 0.0944 (Simulation time: 00 hr 38 min 11 sec)
Simulation finished CPU 0 instructions: 25000001 cycles: 264831906 cumulative IPC: 0.0944 (Simulation time: 00 hr 38 min 11 sec)
Simulation complete CPU 0 instructions: 25000001 cycles: 264831906 cumulative IPC: 0.0944 (Simulation time: 00 hr 38 min 11 sec)

ChampSim completed all CPUs

=== Simulation ===
CPU 0 runs ./traces/astar_313B.trace.xz
Region of Interest Statistics

CPU 0 cumulative IPC: 0.0944 instructions: 25000001 cycles: 264831906
CPU 0 Branch Prediction Accuracy: 86.94% MPKI: 27.53 Average ROB Occupancy at Mispredict: 14.9
Branch type MPKI
BRANCH_DIRECT_JUMP: 0
BRANCH_INDIRECT: 0
BRANCH_CONDITIONAL: 27.5
BRANCH_DIRECT_CALL: 0
BRANCH_INDIRECT_CALL: 0.00048
BRANCH_RETURN: 0.00032

LLC TOTAL        ACCESS:    2789360 HIT:    1013117 MISS:    1776243
LLC LOAD         ACCESS:     485341 HIT:     139147 MISS:     346194
LLC RFO          ACCESS:     540144 HIT:      31612 MISS:     508532
LLC PREFETCH     ACCESS:     698489 HIT:     108811 MISS:     589678
LLC WRITE        ACCESS:     770790 HIT:     697072 MISS:      73718
LLC TRANSLATION  ACCESS:     294596 HIT:      36475 MISS:     258121
LLC PREFETCH REQUESTED:          0 ISSUED:          0 USEFUL:          0 USELESS:          0
LLC AVERAGE MISS LATENCY: 902 cycles
cpu0_DTLB TOTAL        ACCESS:    9257271 HIT:    8036189 MISS:    1221082
cpu0_DTLB LOAD         ACCESS:    9257271 HIT:    8036189 MISS:    1221082
cpu0_DTLB RFO          ACCESS:          0 HIT:          0 MISS:          0
cpu0_DTLB PREFETCH     ACCESS:          0 HIT:          0 MISS:          0
cpu0_DTLB WRITE        ACCESS:          0 HIT:          0 MISS:          0
cpu0_DTLB TRANSLATION  ACCESS:          0 HIT:          0 MISS:          0
cpu0_DTLB PREFETCH REQUESTED:          0 ISSUED:          0 USEFUL:          0 USELESS:          0
cpu0_DTLB AVERAGE MISS LATENCY: 348.3 cycles
cpu0_ITLB TOTAL        ACCESS:         33 HIT:         33 MISS:          0
cpu0_ITLB LOAD         ACCESS:         33 HIT:         33 MISS:          0
cpu0_ITLB RFO          ACCESS:          0 HIT:          0 MISS:          0
cpu0_ITLB PREFETCH     ACCESS:          0 HIT:          0 MISS:          0
cpu0_ITLB WRITE        ACCESS:          0 HIT:          0 MISS:          0
cpu0_ITLB TRANSLATION  ACCESS:          0 HIT:          0 MISS:          0
cpu0_ITLB PREFETCH REQUESTED:          0 ISSUED:          0 USEFUL:          0 USELESS:          0
cpu0_ITLB AVERAGE MISS LATENCY: -nan cycles
cpu0_L1D TOTAL        ACCESS:   19205915 HIT:   15646784 MISS:    3559131
cpu0_L1D LOAD         ACCESS:    8433890 HIT:    7286208 MISS:    1147682
cpu0_L1D RFO          ACCESS:          0 HIT:          0 MISS:          0
cpu0_L1D PREFETCH     ACCESS:    7619000 HIT:    6163961 MISS:    1455039
cpu0_L1D WRITE        ACCESS:    2578812 HIT:    2013462 MISS:     565350
cpu0_L1D TRANSLATION  ACCESS:     574213 HIT:     183153 MISS:     391060
cpu0_L1D PREFETCH REQUESTED:   13583460 ISSUED:    7619000 USEFUL:     133228 USELESS:     782444
cpu0_L1D AVERAGE MISS LATENCY: 450.6 cycles
cpu0_L1I TOTAL        ACCESS:         35 HIT:         35 MISS:          0
cpu0_L1I LOAD         ACCESS:         35 HIT:         35 MISS:          0
cpu0_L1I RFO          ACCESS:          0 HIT:          0 MISS:          0
cpu0_L1I PREFETCH     ACCESS:          0 HIT:          0 MISS:          0
cpu0_L1I WRITE        ACCESS:          0 HIT:          0 MISS:          0
cpu0_L1I TRANSLATION  ACCESS:          0 HIT:          0 MISS:          0
cpu0_L1I PREFETCH REQUESTED:          0 ISSUED:          0 USEFUL:          0 USELESS:          0
cpu0_L1I AVERAGE MISS LATENCY: -nan cycles
cpu0_L2C TOTAL        ACCESS:    3736107 HIT:    1679817 MISS:    2056290
cpu0_L2C LOAD         ACCESS:     906487 HIT:     409689 MISS:     496798
cpu0_L2C RFO          ACCESS:     565086 HIT:      24942 MISS:     540144
cpu0_L2C PREFETCH     ACCESS:    1081082 HIT:     356380 MISS:     724702
cpu0_L2C WRITE        ACCESS:     793311 HIT:     793261 MISS:         50
cpu0_L2C TRANSLATION  ACCESS:     390141 HIT:      95545 MISS:     294596
cpu0_L2C PREFETCH REQUESTED:     165236 ISSUED:     165236 USEFUL:      17659 USELESS:        688
cpu0_L2C AVERAGE MISS LATENCY: 773.3 cycles
cpu0_STLB TOTAL        ACCESS:     992119 HIT:     479612 MISS:     512507
cpu0_STLB LOAD         ACCESS:     992119 HIT:     479612 MISS:     512507
cpu0_STLB RFO          ACCESS:          0 HIT:          0 MISS:          0
cpu0_STLB PREFETCH     ACCESS:          0 HIT:          0 MISS:          0
cpu0_STLB WRITE        ACCESS:          0 HIT:          0 MISS:          0
cpu0_STLB TRANSLATION  ACCESS:          0 HIT:          0 MISS:          0
cpu0_STLB PREFETCH REQUESTED:          0 ISSUED:          0 USEFUL:          0 USELESS:          0
cpu0_STLB AVERAGE MISS LATENCY: 871.8 cycles

DRAM Statistics

Channel 0 RQ ROW_BUFFER_HIT:      77364
  ROW_BUFFER_MISS:    1541464
 AVG DBUS CONGESTED CYCLE: 3.978
WQ ROW_BUFFER_HIT: Channel 0 
  ROW_BUFFER_MISS:        841
  FULL:     738909
