WARNING: physical memory size is smaller than virtual memory size.

*** ChampSim Multicore Out-of-Order Simulator ***
Warmup Instructions: 25000000
Simulation Instructions: 25000000
Number of CPUs: 1
Page size: 4096

Off-chip DRAM Size: 4 GiB Channels: 1 Width: 64-bit Data Race: 800 MT/s
Heartbeat CPU 0 instructions: 10000002 cycles: 2964684 heartbeat IPC: 3.373 cumulative IPC: 3.373 (Simulation time: 00 hr 00 min 51 sec)
Heartbeat CPU 0 instructions: 20000001 cycles: 5619577 heartbeat IPC: 3.767 cumulative IPC: 3.559 (Simulation time: 00 hr 01 min 40 sec)
Warmup finished CPU 0 instructions: 25000003 cycles: 7024256 cumulative IPC: 3.559 (Simulation time: 00 hr 02 min 06 sec)
Warmup complete CPU 0 instructions: 25000003 cycles: 7024256 cumulative IPC: 3.559 (Simulation time: 00 hr 02 min 06 sec)
Heartbeat CPU 0 instructions: 30000003 cycles: 60029841 heartbeat IPC: 0.1838 cumulative IPC: 0.09433 (Simulation time: 00 hr 07 min 54 sec)
Heartbeat CPU 0 instructions: 40000003 cycles: 159824313 heartbeat IPC: 0.1002 cumulative IPC: 0.09817 (Simulation time: 00 hr 18 min 52 sec)
Heartbeat CPU 0 instructions: 50000001 cycles: 257531788 heartbeat IPC: 0.1023 cumulative IPC: 0.0998 (Simulation time: 00 hr 24 min 25 sec)
Simulation finished CPU 0 instructions: 25000002 cycles: 250507534 cumulative IPC: 0.0998 (Simulation time: 00 hr 24 min 25 sec)
Simulation complete CPU 0 instructions: 25000002 cycles: 250507534 cumulative IPC: 0.0998 (Simulation time: 00 hr 24 min 25 sec)

ChampSim completed all CPUs

=== Simulation ===
CPU 0 runs ./traces/astar_313B.trace.xz
Region of Interest Statistics

CPU 0 cumulative IPC: 0.0998 instructions: 25000002 cycles: 250507534
CPU 0 Branch Prediction Accuracy: 86.94% MPKI: 27.53 Average ROB Occupancy at Mispredict: 14.62
Branch type MPKI
BRANCH_DIRECT_JUMP: 0
BRANCH_INDIRECT: 0
BRANCH_CONDITIONAL: 27.5
BRANCH_DIRECT_CALL: 0
BRANCH_INDIRECT_CALL: 0.00048
BRANCH_RETURN: 0.00032

LLC TOTAL        ACCESS:    2198688 HIT:     541704 MISS:    1656984
LLC LOAD         ACCESS:     611439 HIT:      97190 MISS:     514249
LLC RFO          ACCESS:     537239 HIT:     125575 MISS:     411664
LLC PREFETCH     ACCESS:          0 HIT:          0 MISS:          0
LLC WRITE        ACCESS:     765701 HIT:     297036 MISS:     468665
LLC TRANSLATION  ACCESS:     284309 HIT:      21903 MISS:     262406
LLC PREFETCH REQUESTED:          0 ISSUED:          0 USEFUL:          0 USELESS:          0
LLC AVERAGE MISS LATENCY: 776.6 cycles
cpu0_DTLB TOTAL        ACCESS:    9203881 HIT:    7991178 MISS:    1212703
cpu0_DTLB LOAD         ACCESS:    9203881 HIT:    7991178 MISS:    1212703
cpu0_DTLB RFO          ACCESS:          0 HIT:          0 MISS:          0
cpu0_DTLB PREFETCH     ACCESS:          0 HIT:          0 MISS:          0
cpu0_DTLB WRITE        ACCESS:          0 HIT:          0 MISS:          0
cpu0_DTLB TRANSLATION  ACCESS:          0 HIT:          0 MISS:          0
cpu0_DTLB PREFETCH REQUESTED:          0 ISSUED:          0 USEFUL:          0 USELESS:          0
cpu0_DTLB AVERAGE MISS LATENCY: 311.2 cycles
cpu0_ITLB TOTAL        ACCESS:         33 HIT:         33 MISS:          0
cpu0_ITLB LOAD         ACCESS:         33 HIT:         33 MISS:          0
cpu0_ITLB RFO          ACCESS:          0 HIT:          0 MISS:          0
cpu0_ITLB PREFETCH     ACCESS:          0 HIT:          0 MISS:          0
cpu0_ITLB WRITE        ACCESS:          0 HIT:          0 MISS:          0
cpu0_ITLB TRANSLATION  ACCESS:          0 HIT:          0 MISS:          0
cpu0_ITLB PREFETCH REQUESTED:          0 ISSUED:          0 USEFUL:          0 USELESS:          0
cpu0_ITLB AVERAGE MISS LATENCY: -nan cycles
cpu0_L1D TOTAL        ACCESS:   11626433 HIT:    9373924 MISS:    2252509
cpu0_L1D LOAD         ACCESS:    8473426 HIT:    7169611 MISS:    1303815
cpu0_L1D RFO          ACCESS:          0 HIT:          0 MISS:          0
cpu0_L1D PREFETCH     ACCESS:          0 HIT:          0 MISS:          0
cpu0_L1D WRITE        ACCESS:    2578812 HIT:    2014292 MISS:     564520
cpu0_L1D TRANSLATION  ACCESS:     574195 HIT:     190021 MISS:     384174
cpu0_L1D PREFETCH REQUESTED:          0 ISSUED:          0 USEFUL:          0 USELESS:          0
cpu0_L1D AVERAGE MISS LATENCY: 591.2 cycles
cpu0_L1I TOTAL        ACCESS:         35 HIT:         35 MISS:          0
cpu0_L1I LOAD         ACCESS:         35 HIT:         35 MISS:          0
cpu0_L1I RFO          ACCESS:          0 HIT:          0 MISS:          0
cpu0_L1I PREFETCH     ACCESS:          0 HIT:          0 MISS:          0
cpu0_L1I WRITE        ACCESS:          0 HIT:          0 MISS:          0
cpu0_L1I TRANSLATION  ACCESS:          0 HIT:          0 MISS:          0
cpu0_L1I PREFETCH REQUESTED:          0 ISSUED:          0 USEFUL:          0 USELESS:          0
cpu0_L1I AVERAGE MISS LATENCY: -nan cycles
cpu0_L2C TOTAL        ACCESS:    2764278 HIT:    1331259 MISS:    1433019
cpu0_L2C LOAD         ACCESS:    1023046 HIT:     411607 MISS:     611439
cpu0_L2C RFO          ACCESS:     564261 HIT:      27022 MISS:     537239
cpu0_L2C PREFETCH     ACCESS:          0 HIT:          0 MISS:          0
cpu0_L2C WRITE        ACCESS:     793781 HIT:     793749 MISS:         32
cpu0_L2C TRANSLATION  ACCESS:     383190 HIT:      98881 MISS:     284309
cpu0_L2C PREFETCH REQUESTED:          0 ISSUED:          0 USEFUL:          0 USELESS:          0
cpu0_L2C AVERAGE MISS LATENCY: 918.8 cycles
cpu0_STLB TOTAL        ACCESS:     992600 HIT:     480081 MISS:     512519
cpu0_STLB LOAD         ACCESS:     992600 HIT:     480081 MISS:     512519
cpu0_STLB RFO          ACCESS:          0 HIT:          0 MISS:          0
cpu0_STLB PREFETCH     ACCESS:          0 HIT:          0 MISS:          0
cpu0_STLB WRITE        ACCESS:          0 HIT:          0 MISS:          0
cpu0_STLB TRANSLATION  ACCESS:          0 HIT:          0 MISS:          0
cpu0_STLB PREFETCH REQUESTED:          0 ISSUED:          0 USEFUL:          0 USELESS:          0
cpu0_STLB AVERAGE MISS LATENCY: 766.3 cycles

DRAM Statistics

Channel 0 RQ ROW_BUFFER_HIT:      54249
  ROW_BUFFER_MISS:    1133772
 AVG DBUS CONGESTED CYCLE: 3.969
WQ ROW_BUFFER_HIT: Channel 0 
  ROW_BUFFER_MISS:       1847
  FULL:     569040
