WARNING: physical memory size is smaller than virtual memory size.

*** ChampSim Multicore Out-of-Order Simulator ***
Warmup Instructions: 25000000
Simulation Instructions: 25000000
Number of CPUs: 1
Page size: 4096

Off-chip DRAM Size: 4 GiB Channels: 1 Width: 64-bit Data Race: 800 MT/s
Heartbeat CPU 0 instructions: 10000001 cycles: 2580078 heartbeat IPC: 3.876 cumulative IPC: 3.876 (Simulation time: 00 hr 00 min 40 sec)
Heartbeat CPU 0 instructions: 20000003 cycles: 5159939 heartbeat IPC: 3.876 cumulative IPC: 3.876 (Simulation time: 00 hr 01 min 22 sec)
Warmup finished CPU 0 instructions: 25000001 cycles: 6449834 cumulative IPC: 3.876 (Simulation time: 00 hr 01 min 43 sec)
Warmup complete CPU 0 instructions: 25000001 cycles: 6449834 cumulative IPC: 3.876 (Simulation time: 00 hr 01 min 43 sec)
Heartbeat CPU 0 instructions: 30000003 cycles: 18609692 heartbeat IPC: 0.7435 cumulative IPC: 0.4112 (Simulation time: 00 hr 03 min 32 sec)
Heartbeat CPU 0 instructions: 40000000 cycles: 42705311 heartbeat IPC: 0.415 cumulative IPC: 0.4137 (Simulation time: 00 hr 07 min 12 sec)
Heartbeat CPU 0 instructions: 50000001 cycles: 66737936 heartbeat IPC: 0.4161 cumulative IPC: 0.4147 (Simulation time: 00 hr 11 min 06 sec)
Simulation finished CPU 0 instructions: 25000000 cycles: 60288103 cumulative IPC: 0.4147 (Simulation time: 00 hr 11 min 06 sec)
Simulation complete CPU 0 instructions: 25000000 cycles: 60288103 cumulative IPC: 0.4147 (Simulation time: 00 hr 11 min 06 sec)

ChampSim completed all CPUs

=== Simulation ===
CPU 0 runs ./traces/bwaves_1609B.trace.xz
Region of Interest Statistics

CPU 0 cumulative IPC: 0.4147 instructions: 25000000 cycles: 60288103
CPU 0 Branch Prediction Accuracy: 81.22% MPKI: 5.619 Average ROB Occupancy at Mispredict: 261.7
Branch type MPKI
BRANCH_DIRECT_JUMP: 0
BRANCH_INDIRECT: 0
BRANCH_CONDITIONAL: 5.62
BRANCH_DIRECT_CALL: 0
BRANCH_INDIRECT_CALL: 0
BRANCH_RETURN: 0

LLC TOTAL        ACCESS:     584325 HIT:       9839 MISS:     574486
LLC LOAD         ACCESS:     554606 HIT:       7130 MISS:     547476
LLC RFO          ACCESS:      14594 HIT:          0 MISS:      14594
LLC PREFETCH     ACCESS:          0 HIT:          0 MISS:          0
LLC WRITE        ACCESS:      14846 HIT:       2523 MISS:      12323
LLC TRANSLATION  ACCESS:        279 HIT:        186 MISS:         93
LLC PREFETCH REQUESTED:          0 ISSUED:          0 USEFUL:          0 USELESS:          0
LLC AVERAGE MISS LATENCY: 953.5 cycles
cpu0_DTLB TOTAL        ACCESS:    7946200 HIT:    7908579 MISS:      37621
cpu0_DTLB LOAD         ACCESS:    7946200 HIT:    7908579 MISS:      37621
cpu0_DTLB RFO          ACCESS:          0 HIT:          0 MISS:          0
cpu0_DTLB PREFETCH     ACCESS:          0 HIT:          0 MISS:          0
cpu0_DTLB WRITE        ACCESS:          0 HIT:          0 MISS:          0
cpu0_DTLB TRANSLATION  ACCESS:          0 HIT:          0 MISS:          0
cpu0_DTLB PREFETCH REQUESTED:          0 ISSUED:          0 USEFUL:          0 USELESS:          0
cpu0_DTLB AVERAGE MISS LATENCY: 48.02 cycles
cpu0_ITLB TOTAL        ACCESS:          0 HIT:          0 MISS:          0
cpu0_ITLB LOAD         ACCESS:          0 HIT:          0 MISS:          0
cpu0_ITLB RFO          ACCESS:          0 HIT:          0 MISS:          0
cpu0_ITLB PREFETCH     ACCESS:          0 HIT:          0 MISS:          0
cpu0_ITLB WRITE        ACCESS:          0 HIT:          0 MISS:          0
cpu0_ITLB TRANSLATION  ACCESS:          0 HIT:          0 MISS:          0
cpu0_ITLB PREFETCH REQUESTED:          0 ISSUED:          0 USEFUL:          0 USELESS:          0
cpu0_ITLB AVERAGE MISS LATENCY: -nan cycles
cpu0_L1D TOTAL        ACCESS:    9540253 HIT:    8316634 MISS:    1223619
cpu0_L1D LOAD         ACCESS:    8829566 HIT:    7661075 MISS:    1168491
cpu0_L1D RFO          ACCESS:          0 HIT:          0 MISS:          0
cpu0_L1D PREFETCH     ACCESS:          0 HIT:          0 MISS:          0
cpu0_L1D WRITE        ACCESS:     702035 HIT:     655528 MISS:      46507
cpu0_L1D TRANSLATION  ACCESS:       8652 HIT:         31 MISS:       8621
cpu0_L1D PREFETCH REQUESTED:          0 ISSUED:          0 USEFUL:          0 USELESS:          0
cpu0_L1D AVERAGE MISS LATENCY: 292.1 cycles
cpu0_L1I TOTAL        ACCESS:          0 HIT:          0 MISS:          0
cpu0_L1I LOAD         ACCESS:          0 HIT:          0 MISS:          0
cpu0_L1I RFO          ACCESS:          0 HIT:          0 MISS:          0
cpu0_L1I PREFETCH     ACCESS:          0 HIT:          0 MISS:          0
cpu0_L1I WRITE        ACCESS:          0 HIT:          0 MISS:          0
cpu0_L1I TRANSLATION  ACCESS:          0 HIT:          0 MISS:          0
cpu0_L1I PREFETCH REQUESTED:          0 ISSUED:          0 USEFUL:          0 USELESS:          0
cpu0_L1I AVERAGE MISS LATENCY: -nan cycles
cpu0_L2C TOTAL        ACCESS:     630020 HIT:      60283 MISS:     569737
cpu0_L2C LOAD         ACCESS:     590893 HIT:      36282 MISS:     554611
cpu0_L2C RFO          ACCESS:      14655 HIT:         61 MISS:      14594
cpu0_L2C PREFETCH     ACCESS:          0 HIT:          0 MISS:          0
cpu0_L2C WRITE        ACCESS:      15851 HIT:      15598 MISS:        253
cpu0_L2C TRANSLATION  ACCESS:       8621 HIT:       8342 MISS:        279
cpu0_L2C PREFETCH REQUESTED:          0 ISSUED:          0 USEFUL:          0 USELESS:          0
cpu0_L2C AVERAGE MISS LATENCY: 982.5 cycles
cpu0_STLB TOTAL        ACCESS:      22030 HIT:      13393 MISS:       8637
cpu0_STLB LOAD         ACCESS:      22030 HIT:      13393 MISS:       8637
cpu0_STLB RFO          ACCESS:          0 HIT:          0 MISS:          0
cpu0_STLB PREFETCH     ACCESS:          0 HIT:          0 MISS:          0
cpu0_STLB WRITE        ACCESS:          0 HIT:          0 MISS:          0
cpu0_STLB TRANSLATION  ACCESS:          0 HIT:          0 MISS:          0
cpu0_STLB PREFETCH REQUESTED:          0 ISSUED:          0 USEFUL:          0 USELESS:          0
cpu0_STLB AVERAGE MISS LATENCY: 264.5 cycles

DRAM Statistics

Channel 0 RQ ROW_BUFFER_HIT:     404023
  ROW_BUFFER_MISS:     158138
 AVG DBUS CONGESTED CYCLE: 3.792
WQ ROW_BUFFER_HIT: Channel 0 
  ROW_BUFFER_MISS:       7493
  FULL:       7069
