WARNING: physical memory size is smaller than virtual memory size.

*** ChampSim Multicore Out-of-Order Simulator ***
Warmup Instructions: 25000000
Simulation Instructions: 25000000
Number of CPUs: 1
Page size: 4096

Off-chip DRAM Size: 4 GiB Channels: 1 Width: 64-bit Data Race: 800 MT/s
Heartbeat CPU 0 instructions: 10000002 cycles: 2506805 heartbeat IPC: 3.989 cumulative IPC: 3.989 (Simulation time: 00 hr 00 min 33 sec)
Heartbeat CPU 0 instructions: 20000002 cycles: 5027168 heartbeat IPC: 3.968 cumulative IPC: 3.978 (Simulation time: 00 hr 01 min 08 sec)
Warmup finished CPU 0 instructions: 25000001 cycles: 6303600 cumulative IPC: 3.966 (Simulation time: 00 hr 01 min 25 sec)
Warmup complete CPU 0 instructions: 25000001 cycles: 6303600 cumulative IPC: 3.966 (Simulation time: 00 hr 01 min 25 sec)
Heartbeat CPU 0 instructions: 30000000 cycles: 10286492 heartbeat IPC: 1.901 cumulative IPC: 1.255 (Simulation time: 00 hr 02 min 06 sec)
Heartbeat CPU 0 instructions: 40000002 cycles: 15096306 heartbeat IPC: 2.079 cumulative IPC: 1.706 (Simulation time: 00 hr 02 min 59 sec)
Heartbeat CPU 0 instructions: 50000001 cycles: 20178550 heartbeat IPC: 1.968 cumulative IPC: 1.802 (Simulation time: 00 hr 03 min 55 sec)
Simulation finished CPU 0 instructions: 25000000 cycles: 13874951 cumulative IPC: 1.802 (Simulation time: 00 hr 03 min 55 sec)
Simulation complete CPU 0 instructions: 25000000 cycles: 13874951 cumulative IPC: 1.802 (Simulation time: 00 hr 03 min 55 sec)

ChampSim completed all CPUs

=== Simulation ===
CPU 0 runs ./traces/bzip2_281B.trace.xz
Region of Interest Statistics

CPU 0 cumulative IPC: 1.802 instructions: 25000000 cycles: 13874951
CPU 0 Branch Prediction Accuracy: 91.8% MPKI: 14.4 Average ROB Occupancy at Mispredict: 111.6
Branch type MPKI
BRANCH_DIRECT_JUMP: 0.00064
BRANCH_INDIRECT: 0
BRANCH_CONDITIONAL: 14.4
BRANCH_DIRECT_CALL: 4e-05
BRANCH_INDIRECT_CALL: 0
BRANCH_RETURN: 0.00012

LLC TOTAL        ACCESS:     588301 HIT:     522906 MISS:      65395
LLC LOAD         ACCESS:     568598 HIT:     506580 MISS:      62018
LLC RFO          ACCESS:       9421 HIT:       6065 MISS:       3356
LLC PREFETCH     ACCESS:          0 HIT:          0 MISS:          0
LLC WRITE        ACCESS:      10264 HIT:      10255 MISS:          9
LLC TRANSLATION  ACCESS:         18 HIT:          6 MISS:         12
LLC PREFETCH REQUESTED:          0 ISSUED:          0 USEFUL:          0 USELESS:          0
LLC AVERAGE MISS LATENCY: 303 cycles
cpu0_DTLB TOTAL        ACCESS:    5565741 HIT:    5205228 MISS:     360513
cpu0_DTLB LOAD         ACCESS:    5565741 HIT:    5205228 MISS:     360513
cpu0_DTLB RFO          ACCESS:          0 HIT:          0 MISS:          0
cpu0_DTLB PREFETCH     ACCESS:          0 HIT:          0 MISS:          0
cpu0_DTLB WRITE        ACCESS:          0 HIT:          0 MISS:          0
cpu0_DTLB TRANSLATION  ACCESS:          0 HIT:          0 MISS:          0
cpu0_DTLB PREFETCH REQUESTED:          0 ISSUED:          0 USEFUL:          0 USELESS:          0
cpu0_DTLB AVERAGE MISS LATENCY: 6.621 cycles
cpu0_ITLB TOTAL        ACCESS:         76 HIT:         71 MISS:          5
cpu0_ITLB LOAD         ACCESS:         76 HIT:         71 MISS:          5
cpu0_ITLB RFO          ACCESS:          0 HIT:          0 MISS:          0
cpu0_ITLB PREFETCH     ACCESS:          0 HIT:          0 MISS:          0
cpu0_ITLB WRITE        ACCESS:          0 HIT:          0 MISS:          0
cpu0_ITLB TRANSLATION  ACCESS:          0 HIT:          0 MISS:          0
cpu0_ITLB PREFETCH REQUESTED:          0 ISSUED:          0 USEFUL:          0 USELESS:          0
cpu0_ITLB AVERAGE MISS LATENCY: 278 cycles
cpu0_L1D TOTAL        ACCESS:    6200132 HIT:    4659181 MISS:    1540951
cpu0_L1D LOAD         ACCESS:    4315417 HIT:    2830736 MISS:    1484681
cpu0_L1D RFO          ACCESS:          0 HIT:          0 MISS:          0
cpu0_L1D PREFETCH     ACCESS:          0 HIT:          0 MISS:          0
cpu0_L1D WRITE        ACCESS:    1884266 HIT:    1828224 MISS:      56042
cpu0_L1D TRANSLATION  ACCESS:        449 HIT:        221 MISS:        228
cpu0_L1D PREFETCH REQUESTED:          0 ISSUED:          0 USEFUL:          0 USELESS:          0
cpu0_L1D AVERAGE MISS LATENCY: 21.5 cycles
cpu0_L1I TOTAL        ACCESS:         90 HIT:         24 MISS:         66
cpu0_L1I LOAD         ACCESS:         90 HIT:         24 MISS:         66
cpu0_L1I RFO          ACCESS:          0 HIT:          0 MISS:          0
cpu0_L1I PREFETCH     ACCESS:          0 HIT:          0 MISS:          0
cpu0_L1I WRITE        ACCESS:          0 HIT:          0 MISS:          0
cpu0_L1I TRANSLATION  ACCESS:          0 HIT:          0 MISS:          0
cpu0_L1I PREFETCH REQUESTED:          0 ISSUED:          0 USEFUL:          0 USELESS:          0
cpu0_L1I AVERAGE MISS LATENCY: 211.1 cycles
cpu0_L2C TOTAL        ACCESS:     764315 HIT:     186171 MISS:     578144
cpu0_L2C LOAD         ACCESS:     743106 HIT:     174508 MISS:     568598
cpu0_L2C RFO          ACCESS:       9606 HIT:        185 MISS:       9421
cpu0_L2C PREFETCH     ACCESS:          0 HIT:          0 MISS:          0
cpu0_L2C WRITE        ACCESS:      11375 HIT:      11268 MISS:        107
cpu0_L2C TRANSLATION  ACCESS:        228 HIT:        210 MISS:         18
cpu0_L2C PREFETCH REQUESTED:          0 ISSUED:          0 USEFUL:          0 USELESS:          0
cpu0_L2C AVERAGE MISS LATENCY: 54.39 cycles
cpu0_STLB TOTAL        ACCESS:     312901 HIT:     312452 MISS:        449
cpu0_STLB LOAD         ACCESS:     312901 HIT:     312452 MISS:        449
cpu0_STLB RFO          ACCESS:          0 HIT:          0 MISS:          0
cpu0_STLB PREFETCH     ACCESS:          0 HIT:          0 MISS:          0
cpu0_STLB WRITE        ACCESS:          0 HIT:          0 MISS:          0
cpu0_STLB TRANSLATION  ACCESS:          0 HIT:          0 MISS:          0
cpu0_STLB PREFETCH REQUESTED:          0 ISSUED:          0 USEFUL:          0 USELESS:          0
cpu0_STLB AVERAGE MISS LATENCY: 222.8 cycles

DRAM Statistics

Channel 0 RQ ROW_BUFFER_HIT:      30684
  ROW_BUFFER_MISS:      34700
 AVG DBUS CONGESTED CYCLE: 3.895
WQ ROW_BUFFER_HIT: Channel 0 
  ROW_BUFFER_MISS:       1497
  FULL:      19514
