WARNING: physical memory size is smaller than virtual memory size.

*** ChampSim Multicore Out-of-Order Simulator ***
Warmup Instructions: 25000000
Simulation Instructions: 25000000
Number of CPUs: 1
Page size: 4096

Off-chip DRAM Size: 4 GiB Channels: 1 Width: 64-bit Data Race: 800 MT/s
Heartbeat CPU 0 instructions: 10000000 cycles: 2506866 heartbeat IPC: 3.989 cumulative IPC: 3.989 (Simulation time: 00 hr 00 min 50 sec)
Heartbeat CPU 0 instructions: 20000002 cycles: 5027228 heartbeat IPC: 3.968 cumulative IPC: 3.978 (Simulation time: 00 hr 01 min 40 sec)
Warmup finished CPU 0 instructions: 25000001 cycles: 6303641 cumulative IPC: 3.966 (Simulation time: 00 hr 02 min 08 sec)
Warmup complete CPU 0 instructions: 25000001 cycles: 6303641 cumulative IPC: 3.966 (Simulation time: 00 hr 02 min 08 sec)
Heartbeat CPU 0 instructions: 30000000 cycles: 9677227 heartbeat IPC: 2.151 cumulative IPC: 1.482 (Simulation time: 00 hr 02 min 57 sec)
Heartbeat CPU 0 instructions: 40000001 cycles: 13849796 heartbeat IPC: 2.397 cumulative IPC: 1.988 (Simulation time: 00 hr 04 min 12 sec)
Heartbeat CPU 0 instructions: 50000001 cycles: 18441125 heartbeat IPC: 2.178 cumulative IPC: 2.06 (Simulation time: 00 hr 05 min 23 sec)
Simulation finished CPU 0 instructions: 25000000 cycles: 12137485 cumulative IPC: 2.06 (Simulation time: 00 hr 05 min 23 sec)
Simulation complete CPU 0 instructions: 25000000 cycles: 12137485 cumulative IPC: 2.06 (Simulation time: 00 hr 05 min 23 sec)

ChampSim completed all CPUs

=== Simulation ===
CPU 0 runs ./traces/bzip2_281B.trace.xz
Region of Interest Statistics

CPU 0 cumulative IPC: 2.06 instructions: 25000000 cycles: 12137485
CPU 0 Branch Prediction Accuracy: 91.8% MPKI: 14.4 Average ROB Occupancy at Mispredict: 63.98
Branch type MPKI
BRANCH_DIRECT_JUMP: 0.00064
BRANCH_INDIRECT: 0
BRANCH_CONDITIONAL: 14.4
BRANCH_DIRECT_CALL: 4e-05
BRANCH_INDIRECT_CALL: 0
BRANCH_RETURN: 0.00012

LLC TOTAL        ACCESS:     907935 HIT:     851201 MISS:      56734
LLC LOAD         ACCESS:     503203 HIT:     500026 MISS:       3177
LLC RFO          ACCESS:       9424 HIT:       5736 MISS:       3688
LLC PREFETCH     ACCESS:     384982 HIT:     335126 MISS:      49856
LLC WRITE        ACCESS:      10308 HIT:      10306 MISS:          2
LLC TRANSLATION  ACCESS:         18 HIT:          7 MISS:         11
LLC PREFETCH REQUESTED:          0 ISSUED:          0 USEFUL:          0 USELESS:          0
LLC AVERAGE MISS LATENCY: 372.4 cycles
cpu0_DTLB TOTAL        ACCESS:    5660554 HIT:    5298221 MISS:     362333
cpu0_DTLB LOAD         ACCESS:    5660554 HIT:    5298221 MISS:     362333
cpu0_DTLB RFO          ACCESS:          0 HIT:          0 MISS:          0
cpu0_DTLB PREFETCH     ACCESS:          0 HIT:          0 MISS:          0
cpu0_DTLB WRITE        ACCESS:          0 HIT:          0 MISS:          0
cpu0_DTLB TRANSLATION  ACCESS:          0 HIT:          0 MISS:          0
cpu0_DTLB PREFETCH REQUESTED:          0 ISSUED:          0 USEFUL:          0 USELESS:          0
cpu0_DTLB AVERAGE MISS LATENCY: 6.593 cycles
cpu0_ITLB TOTAL        ACCESS:         76 HIT:         71 MISS:          5
cpu0_ITLB LOAD         ACCESS:         76 HIT:         71 MISS:          5
cpu0_ITLB RFO          ACCESS:          0 HIT:          0 MISS:          0
cpu0_ITLB PREFETCH     ACCESS:          0 HIT:          0 MISS:          0
cpu0_ITLB WRITE        ACCESS:          0 HIT:          0 MISS:          0
cpu0_ITLB TRANSLATION  ACCESS:          0 HIT:          0 MISS:          0
cpu0_ITLB PREFETCH REQUESTED:          0 ISSUED:          0 USEFUL:          0 USELESS:          0
cpu0_ITLB AVERAGE MISS LATENCY: 278.4 cycles
cpu0_L1D TOTAL        ACCESS:    9354365 HIT:    7087334 MISS:    2267031
cpu0_L1D LOAD         ACCESS:    4400067 HIT:    3219051 MISS:    1181016
cpu0_L1D RFO          ACCESS:          0 HIT:          0 MISS:          0
cpu0_L1D PREFETCH     ACCESS:    3069359 HIT:    2042159 MISS:    1027200
cpu0_L1D WRITE        ACCESS:    1884490 HIT:    1825906 MISS:      58584
cpu0_L1D TRANSLATION  ACCESS:        449 HIT:        218 MISS:        231
cpu0_L1D PREFETCH REQUESTED:    4446899 ISSUED:    3069353 USEFUL:      80139 USELESS:     368486
cpu0_L1D AVERAGE MISS LATENCY: 16.64 cycles
cpu0_L1I TOTAL        ACCESS:         90 HIT:         24 MISS:         66
cpu0_L1I LOAD         ACCESS:         90 HIT:         24 MISS:         66
cpu0_L1I RFO          ACCESS:          0 HIT:          0 MISS:          0
cpu0_L1I PREFETCH     ACCESS:          0 HIT:          0 MISS:          0
cpu0_L1I WRITE        ACCESS:          0 HIT:          0 MISS:          0
cpu0_L1I TRANSLATION  ACCESS:          0 HIT:          0 MISS:          0
cpu0_L1I PREFETCH REQUESTED:          0 ISSUED:          0 USEFUL:          0 USELESS:          0
cpu0_L1I AVERAGE MISS LATENCY: 198.1 cycles
cpu0_L2C TOTAL        ACCESS:    1297509 HIT:     304508 MISS:     993001
cpu0_L2C LOAD         ACCESS:     671357 HIT:     163423 MISS:     507934
cpu0_L2C RFO          ACCESS:       9664 HIT:        239 MISS:       9425
cpu0_L2C PREFETCH     ACCESS:     605008 HIT:     129565 MISS:     475443
cpu0_L2C WRITE        ACCESS:      11249 HIT:      11068 MISS:        181
cpu0_L2C TRANSLATION  ACCESS:        231 HIT:        213 MISS:         18
cpu0_L2C PREFETCH REQUESTED:     156381 ISSUED:     156377 USEFUL:      21618 USELESS:      44867
cpu0_L2C AVERAGE MISS LATENCY: 38.8 cycles
cpu0_STLB TOTAL        ACCESS:     312845 HIT:     312396 MISS:        449
cpu0_STLB LOAD         ACCESS:     312845 HIT:     312396 MISS:        449
cpu0_STLB RFO          ACCESS:          0 HIT:          0 MISS:          0
cpu0_STLB PREFETCH     ACCESS:          0 HIT:          0 MISS:          0
cpu0_STLB WRITE        ACCESS:          0 HIT:          0 MISS:          0
cpu0_STLB TRANSLATION  ACCESS:          0 HIT:          0 MISS:          0
cpu0_STLB PREFETCH REQUESTED:          0 ISSUED:          0 USEFUL:          0 USELESS:          0
cpu0_STLB AVERAGE MISS LATENCY: 233.3 cycles

DRAM Statistics

Channel 0 RQ ROW_BUFFER_HIT:      32103
  ROW_BUFFER_MISS:      24331
 AVG DBUS CONGESTED CYCLE: 3.937
WQ ROW_BUFFER_HIT: Channel 0 
  ROW_BUFFER_MISS:       1096
  FULL:      19601
