WARNING: physical memory size is smaller than virtual memory size.

*** ChampSim Multicore Out-of-Order Simulator ***
Warmup Instructions: 25000000
Simulation Instructions: 25000000
Number of CPUs: 1
Page size: 4096

Off-chip DRAM Size: 4 GiB Channels: 1 Width: 64-bit Data Race: 800 MT/s
Heartbeat CPU 0 instructions: 10000001 cycles: 2511151 heartbeat IPC: 3.982 cumulative IPC: 3.982 (Simulation time: 00 hr 00 min 42 sec)
Heartbeat CPU 0 instructions: 20000002 cycles: 5071050 heartbeat IPC: 3.906 cumulative IPC: 3.944 (Simulation time: 00 hr 01 min 26 sec)
Warmup finished CPU 0 instructions: 25000001 cycles: 6387145 cumulative IPC: 3.914 (Simulation time: 00 hr 01 min 49 sec)
Warmup complete CPU 0 instructions: 25000001 cycles: 6387145 cumulative IPC: 3.914 (Simulation time: 00 hr 01 min 49 sec)
Heartbeat CPU 0 instructions: 30000000 cycles: 9538835 heartbeat IPC: 2.238 cumulative IPC: 1.586 (Simulation time: 00 hr 02 min 31 sec)
Heartbeat CPU 0 instructions: 40000000 cycles: 21690973 heartbeat IPC: 0.8229 cumulative IPC: 0.9801 (Simulation time: 00 hr 04 min 39 sec)
Heartbeat CPU 0 instructions: 50000003 cycles: 33190415 heartbeat IPC: 0.8696 cumulative IPC: 0.9327 (Simulation time: 00 hr 06 min 43 sec)
Simulation finished CPU 0 instructions: 25000002 cycles: 26803271 cumulative IPC: 0.9327 (Simulation time: 00 hr 06 min 43 sec)
Simulation complete CPU 0 instructions: 25000002 cycles: 26803271 cumulative IPC: 0.9327 (Simulation time: 00 hr 06 min 43 sec)

ChampSim completed all CPUs

=== Simulation ===
CPU 0 runs ./traces/cactusADM_1039B.trace.xz
Region of Interest Statistics

CPU 0 cumulative IPC: 0.9327 instructions: 25000002 cycles: 26803271
CPU 0 Branch Prediction Accuracy: 98.22% MPKI: 0.03732 Average ROB Occupancy at Mispredict: 278.2
Branch type MPKI
BRANCH_DIRECT_JUMP: 0
BRANCH_INDIRECT: 0
BRANCH_CONDITIONAL: 0.0373
BRANCH_DIRECT_CALL: 0
BRANCH_INDIRECT_CALL: 0
BRANCH_RETURN: 0

LLC TOTAL        ACCESS:     302667 HIT:      62390 MISS:     240277
LLC LOAD         ACCESS:     158701 HIT:      29694 MISS:     129007
LLC RFO          ACCESS:      67028 HIT:       7858 MISS:      59170
LLC PREFETCH     ACCESS:          0 HIT:          0 MISS:          0
LLC WRITE        ACCESS:      66019 HIT:      24771 MISS:      41248
LLC TRANSLATION  ACCESS:      10919 HIT:         67 MISS:      10852
LLC PREFETCH REQUESTED:          0 ISSUED:          0 USEFUL:          0 USELESS:          0
LLC AVERAGE MISS LATENCY: 704.1 cycles
cpu0_DTLB TOTAL        ACCESS:    6035714 HIT:    5429504 MISS:     606210
cpu0_DTLB LOAD         ACCESS:    6035714 HIT:    5429504 MISS:     606210
cpu0_DTLB RFO          ACCESS:          0 HIT:          0 MISS:          0
cpu0_DTLB PREFETCH     ACCESS:          0 HIT:          0 MISS:          0
cpu0_DTLB WRITE        ACCESS:          0 HIT:          0 MISS:          0
cpu0_DTLB TRANSLATION  ACCESS:          0 HIT:          0 MISS:          0
cpu0_DTLB PREFETCH REQUESTED:          0 ISSUED:          0 USEFUL:          0 USELESS:          0
cpu0_DTLB AVERAGE MISS LATENCY: 26.8 cycles
cpu0_ITLB TOTAL        ACCESS:    3564203 HIT:    3564203 MISS:          0
cpu0_ITLB LOAD         ACCESS:    3564203 HIT:    3564203 MISS:          0
cpu0_ITLB RFO          ACCESS:          0 HIT:          0 MISS:          0
cpu0_ITLB PREFETCH     ACCESS:          0 HIT:          0 MISS:          0
cpu0_ITLB WRITE        ACCESS:          0 HIT:          0 MISS:          0
cpu0_ITLB TRANSLATION  ACCESS:          0 HIT:          0 MISS:          0
cpu0_ITLB PREFETCH REQUESTED:          0 ISSUED:          0 USEFUL:          0 USELESS:          0
cpu0_ITLB AVERAGE MISS LATENCY: -nan cycles
cpu0_L1D TOTAL        ACCESS:    9152478 HIT:    8391226 MISS:     761252
cpu0_L1D LOAD         ACCESS:    5991665 HIT:    5654227 MISS:     337438
cpu0_L1D RFO          ACCESS:          0 HIT:          0 MISS:          0
cpu0_L1D PREFETCH     ACCESS:          0 HIT:          0 MISS:          0
cpu0_L1D WRITE        ACCESS:    2918307 HIT:    2621238 MISS:     297069
cpu0_L1D TRANSLATION  ACCESS:     242506 HIT:     115761 MISS:     126745
cpu0_L1D PREFETCH REQUESTED:          0 ISSUED:          0 USEFUL:          0 USELESS:          0
cpu0_L1D AVERAGE MISS LATENCY: 207.6 cycles
cpu0_L1I TOTAL        ACCESS:    4669318 HIT:    4669318 MISS:          0
cpu0_L1I LOAD         ACCESS:    4669318 HIT:    4669318 MISS:          0
cpu0_L1I RFO          ACCESS:          0 HIT:          0 MISS:          0
cpu0_L1I PREFETCH     ACCESS:          0 HIT:          0 MISS:          0
cpu0_L1I WRITE        ACCESS:          0 HIT:          0 MISS:          0
cpu0_L1I TRANSLATION  ACCESS:          0 HIT:          0 MISS:          0
cpu0_L1I PREFETCH REQUESTED:          0 ISSUED:          0 USEFUL:          0 USELESS:          0
cpu0_L1I AVERAGE MISS LATENCY: -nan cycles
cpu0_L2C TOTAL        ACCESS:     553727 HIT:     316987 MISS:     236740
cpu0_L2C LOAD         ACCESS:     286780 HIT:     128079 MISS:     158701
cpu0_L2C RFO          ACCESS:      69115 HIT:       2087 MISS:      67028
cpu0_L2C PREFETCH     ACCESS:          0 HIT:          0 MISS:          0
cpu0_L2C WRITE        ACCESS:      71138 HIT:      71046 MISS:         92
cpu0_L2C TRANSLATION  ACCESS:     126694 HIT:     115775 MISS:      10919
cpu0_L2C PREFETCH REQUESTED:          0 ISSUED:          0 USEFUL:          0 USELESS:          0
cpu0_L2C AVERAGE MISS LATENCY: 735.5 cycles
cpu0_STLB TOTAL        ACCESS:     441404 HIT:     311428 MISS:     129976
cpu0_STLB LOAD         ACCESS:     441404 HIT:     311428 MISS:     129976
cpu0_STLB RFO          ACCESS:          0 HIT:          0 MISS:          0
cpu0_STLB PREFETCH     ACCESS:          0 HIT:          0 MISS:          0
cpu0_STLB WRITE        ACCESS:          0 HIT:          0 MISS:          0
cpu0_STLB TRANSLATION  ACCESS:          0 HIT:          0 MISS:          0
cpu0_STLB PREFETCH REQUESTED:          0 ISSUED:          0 USEFUL:          0 USELESS:          0
cpu0_STLB AVERAGE MISS LATENCY: 123.8 cycles

DRAM Statistics

Channel 0 RQ ROW_BUFFER_HIT:      27435
  ROW_BUFFER_MISS:     171593
 AVG DBUS CONGESTED CYCLE: 3.908
WQ ROW_BUFFER_HIT: Channel 0 
  ROW_BUFFER_MISS:       6703
  FULL:      52508
