WARNING: physical memory size is smaller than virtual memory size.

*** ChampSim Multicore Out-of-Order Simulator ***
Warmup Instructions: 25000000
Simulation Instructions: 25000000
Number of CPUs: 1
Page size: 4096

Off-chip DRAM Size: 4 GiB Channels: 1 Width: 64-bit Data Race: 800 MT/s
Heartbeat CPU 0 instructions: 10000003 cycles: 2514239 heartbeat IPC: 3.977 cumulative IPC: 3.977 (Simulation time: 00 hr 00 min 56 sec)
Heartbeat CPU 0 instructions: 20000003 cycles: 5070854 heartbeat IPC: 3.911 cumulative IPC: 3.944 (Simulation time: 00 hr 01 min 53 sec)
Warmup finished CPU 0 instructions: 25000003 cycles: 6386945 cumulative IPC: 3.914 (Simulation time: 00 hr 02 min 25 sec)
Warmup complete CPU 0 instructions: 25000003 cycles: 6386945 cumulative IPC: 3.914 (Simulation time: 00 hr 02 min 25 sec)
Heartbeat CPU 0 instructions: 30000001 cycles: 9423049 heartbeat IPC: 2.298 cumulative IPC: 1.647 (Simulation time: 00 hr 03 min 17 sec)
Heartbeat CPU 0 instructions: 40000003 cycles: 20182495 heartbeat IPC: 0.9294 cumulative IPC: 1.087 (Simulation time: 00 hr 05 min 48 sec)
Heartbeat CPU 0 instructions: 50000000 cycles: 30969128 heartbeat IPC: 0.9271 cumulative IPC: 1.017 (Simulation time: 00 hr 08 min 34 sec)
Simulation finished CPU 0 instructions: 25000001 cycles: 24582185 cumulative IPC: 1.017 (Simulation time: 00 hr 08 min 34 sec)
Simulation complete CPU 0 instructions: 25000001 cycles: 24582185 cumulative IPC: 1.017 (Simulation time: 00 hr 08 min 34 sec)

ChampSim completed all CPUs

=== Simulation ===
CPU 0 runs ./traces/cactusADM_734B.trace.xz
Region of Interest Statistics

CPU 0 cumulative IPC: 1.017 instructions: 25000001 cycles: 24582185
CPU 0 Branch Prediction Accuracy: 98.22% MPKI: 0.03732 Average ROB Occupancy at Mispredict: 276.8
Branch type MPKI
BRANCH_DIRECT_JUMP: 0
BRANCH_INDIRECT: 0
BRANCH_CONDITIONAL: 0.0373
BRANCH_DIRECT_CALL: 0
BRANCH_INDIRECT_CALL: 0
BRANCH_RETURN: 0

LLC TOTAL        ACCESS:     315798 HIT:      73849 MISS:     241949
LLC LOAD         ACCESS:      34689 HIT:       5863 MISS:      28826
LLC RFO          ACCESS:      67008 HIT:       3178 MISS:      63830
LLC PREFETCH     ACCESS:     136238 HIT:      16176 MISS:     120062
LLC WRITE        ACCESS:      66228 HIT:      48427 MISS:      17801
LLC TRANSLATION  ACCESS:      11635 HIT:        205 MISS:      11430
LLC PREFETCH REQUESTED:          0 ISSUED:          0 USEFUL:          0 USELESS:          0
LLC AVERAGE MISS LATENCY: 1015 cycles
cpu0_DTLB TOTAL        ACCESS:    5740534 HIT:    5225797 MISS:     514737
cpu0_DTLB LOAD         ACCESS:    5740534 HIT:    5225797 MISS:     514737
cpu0_DTLB RFO          ACCESS:          0 HIT:          0 MISS:          0
cpu0_DTLB PREFETCH     ACCESS:          0 HIT:          0 MISS:          0
cpu0_DTLB WRITE        ACCESS:          0 HIT:          0 MISS:          0
cpu0_DTLB TRANSLATION  ACCESS:          0 HIT:          0 MISS:          0
cpu0_DTLB PREFETCH REQUESTED:          0 ISSUED:          0 USEFUL:          0 USELESS:          0
cpu0_DTLB AVERAGE MISS LATENCY: 37.32 cycles
cpu0_ITLB TOTAL        ACCESS:    3536545 HIT:    3536545 MISS:          0
cpu0_ITLB LOAD         ACCESS:    3536545 HIT:    3536545 MISS:          0
cpu0_ITLB RFO          ACCESS:          0 HIT:          0 MISS:          0
cpu0_ITLB PREFETCH     ACCESS:          0 HIT:          0 MISS:          0
cpu0_ITLB WRITE        ACCESS:          0 HIT:          0 MISS:          0
cpu0_ITLB TRANSLATION  ACCESS:          0 HIT:          0 MISS:          0
cpu0_ITLB PREFETCH REQUESTED:          0 ISSUED:          0 USEFUL:          0 USELESS:          0
cpu0_ITLB AVERAGE MISS LATENCY: -nan cycles
cpu0_L1D TOTAL        ACCESS:    9982331 HIT:    9146895 MISS:     835436
cpu0_L1D LOAD         ACCESS:    5849582 HIT:    5618159 MISS:     231423
cpu0_L1D RFO          ACCESS:          0 HIT:          0 MISS:          0
cpu0_L1D PREFETCH     ACCESS:     970728 HIT:     823660 MISS:     147068
cpu0_L1D WRITE        ACCESS:    2915672 HIT:    2589787 MISS:     325885
cpu0_L1D TRANSLATION  ACCESS:     246349 HIT:     115289 MISS:     131060
cpu0_L1D PREFETCH REQUESTED:    6456329 ISSUED:     970731 USEFUL:     101386 USELESS:       4131
cpu0_L1D AVERAGE MISS LATENCY: 193.1 cycles
cpu0_L1I TOTAL        ACCESS:    4641308 HIT:    4641308 MISS:          0
cpu0_L1I LOAD         ACCESS:    4641308 HIT:    4641308 MISS:          0
cpu0_L1I RFO          ACCESS:          0 HIT:          0 MISS:          0
cpu0_L1I PREFETCH     ACCESS:          0 HIT:          0 MISS:          0
cpu0_L1I WRITE        ACCESS:          0 HIT:          0 MISS:          0
cpu0_L1I TRANSLATION  ACCESS:          0 HIT:          0 MISS:          0
cpu0_L1I PREFETCH REQUESTED:          0 ISSUED:          0 USEFUL:          0 USELESS:          0
cpu0_L1I AVERAGE MISS LATENCY: -nan cycles
cpu0_L2C TOTAL        ACCESS:     843685 HIT:     591412 MISS:     252273
cpu0_L2C LOAD         ACCESS:     190150 HIT:     154948 MISS:      35202
cpu0_L2C RFO          ACCESS:      67936 HIT:        928 MISS:      67008
cpu0_L2C PREFETCH     ACCESS:     384631 HIT:     246314 MISS:     138317
cpu0_L2C WRITE        ACCESS:      69982 HIT:      69871 MISS:        111
cpu0_L2C TRANSLATION  ACCESS:     130986 HIT:     119351 MISS:      11635
cpu0_L2C PREFETCH REQUESTED:     279318 ISSUED:     279111 USEFUL:      64872 USELESS:        272
cpu0_L2C AVERAGE MISS LATENCY: 948.8 cycles
cpu0_STLB TOTAL        ACCESS:     390849 HIT:     257688 MISS:     133161
cpu0_STLB LOAD         ACCESS:     390849 HIT:     257688 MISS:     133161
cpu0_STLB RFO          ACCESS:          0 HIT:          0 MISS:          0
cpu0_STLB PREFETCH     ACCESS:          0 HIT:          0 MISS:          0
cpu0_STLB WRITE        ACCESS:          0 HIT:          0 MISS:          0
cpu0_STLB TRANSLATION  ACCESS:          0 HIT:          0 MISS:          0
cpu0_STLB PREFETCH REQUESTED:          0 ISSUED:          0 USEFUL:          0 USELESS:          0
cpu0_STLB AVERAGE MISS LATENCY: 163.9 cycles

DRAM Statistics

Channel 0 RQ ROW_BUFFER_HIT:      30025
  ROW_BUFFER_MISS:     190674
 AVG DBUS CONGESTED CYCLE: 3.941
WQ ROW_BUFFER_HIT: Channel 0 
  ROW_BUFFER_MISS:        884
  FULL:      68935
