WARNING: physical memory size is smaller than virtual memory size.

*** ChampSim Multicore Out-of-Order Simulator ***
Warmup Instructions: 25000000
Simulation Instructions: 25000000
Number of CPUs: 1
Page size: 4096

Off-chip DRAM Size: 4 GiB Channels: 1 Width: 64-bit Data Race: 800 MT/s
Heartbeat CPU 0 instructions: 10000002 cycles: 2510838 heartbeat IPC: 3.983 cumulative IPC: 3.983 (Simulation time: 00 hr 00 min 54 sec)
Heartbeat CPU 0 instructions: 20000002 cycles: 5069478 heartbeat IPC: 3.908 cumulative IPC: 3.945 (Simulation time: 00 hr 01 min 51 sec)
Warmup finished CPU 0 instructions: 25000003 cycles: 6384714 cumulative IPC: 3.916 (Simulation time: 00 hr 02 min 25 sec)
Warmup complete CPU 0 instructions: 25000003 cycles: 6384714 cumulative IPC: 3.916 (Simulation time: 00 hr 02 min 25 sec)
Heartbeat CPU 0 instructions: 30000002 cycles: 9458197 heartbeat IPC: 2.279 cumulative IPC: 1.627 (Simulation time: 00 hr 03 min 17 sec)
Heartbeat CPU 0 instructions: 40000000 cycles: 20614412 heartbeat IPC: 0.8964 cumulative IPC: 1.054 (Simulation time: 00 hr 05 min 52 sec)
Heartbeat CPU 0 instructions: 50000003 cycles: 31427085 heartbeat IPC: 0.9248 cumulative IPC: 0.9983 (Simulation time: 00 hr 08 min 36 sec)
Simulation finished CPU 0 instructions: 25000000 cycles: 25042372 cumulative IPC: 0.9983 (Simulation time: 00 hr 08 min 36 sec)
Simulation complete CPU 0 instructions: 25000000 cycles: 25042372 cumulative IPC: 0.9983 (Simulation time: 00 hr 08 min 36 sec)

ChampSim completed all CPUs

=== Simulation ===
CPU 0 runs ./traces/cactusADM_1039B.trace.xz
Region of Interest Statistics

CPU 0 cumulative IPC: 0.9983 instructions: 25000000 cycles: 25042372
CPU 0 Branch Prediction Accuracy: 98.22% MPKI: 0.03732 Average ROB Occupancy at Mispredict: 276.3
Branch type MPKI
BRANCH_DIRECT_JUMP: 0
BRANCH_INDIRECT: 0
BRANCH_CONDITIONAL: 0.0373
BRANCH_DIRECT_CALL: 0
BRANCH_INDIRECT_CALL: 0
BRANCH_RETURN: 0

LLC TOTAL        ACCESS:     315029 HIT:      75102 MISS:     239927
LLC LOAD         ACCESS:      36682 HIT:       6000 MISS:      30682
LLC RFO          ACCESS:      67007 HIT:       3350 MISS:      63657
LLC PREFETCH     ACCESS:     134565 HIT:      16298 MISS:     118267
LLC WRITE        ACCESS:      66151 HIT:      49343 MISS:      16808
LLC TRANSLATION  ACCESS:      10624 HIT:        111 MISS:      10513
LLC PREFETCH REQUESTED:          0 ISSUED:          0 USEFUL:          0 USELESS:          0
LLC AVERAGE MISS LATENCY: 1040 cycles
cpu0_DTLB TOTAL        ACCESS:    5842590 HIT:    5253072 MISS:     589518
cpu0_DTLB LOAD         ACCESS:    5842590 HIT:    5253072 MISS:     589518
cpu0_DTLB RFO          ACCESS:          0 HIT:          0 MISS:          0
cpu0_DTLB PREFETCH     ACCESS:          0 HIT:          0 MISS:          0
cpu0_DTLB WRITE        ACCESS:          0 HIT:          0 MISS:          0
cpu0_DTLB TRANSLATION  ACCESS:          0 HIT:          0 MISS:          0
cpu0_DTLB PREFETCH REQUESTED:          0 ISSUED:          0 USEFUL:          0 USELESS:          0
cpu0_DTLB AVERAGE MISS LATENCY: 31.29 cycles
cpu0_ITLB TOTAL        ACCESS:    3538129 HIT:    3538129 MISS:          0
cpu0_ITLB LOAD         ACCESS:    3538129 HIT:    3538129 MISS:          0
cpu0_ITLB RFO          ACCESS:          0 HIT:          0 MISS:          0
cpu0_ITLB PREFETCH     ACCESS:          0 HIT:          0 MISS:          0
cpu0_ITLB WRITE        ACCESS:          0 HIT:          0 MISS:          0
cpu0_ITLB TRANSLATION  ACCESS:          0 HIT:          0 MISS:          0
cpu0_ITLB PREFETCH REQUESTED:          0 ISSUED:          0 USEFUL:          0 USELESS:          0
cpu0_ITLB AVERAGE MISS LATENCY: -nan cycles
cpu0_L1D TOTAL        ACCESS:    9887363 HIT:    9071003 MISS:     816360
cpu0_L1D LOAD         ACCESS:    5771874 HIT:    5541613 MISS:     230261
cpu0_L1D RFO          ACCESS:          0 HIT:          0 MISS:          0
cpu0_L1D PREFETCH     ACCESS:     962704 HIT:     830456 MISS:     132248
cpu0_L1D WRITE        ACCESS:    2915729 HIT:    2586910 MISS:     328819
cpu0_L1D TRANSLATION  ACCESS:     237056 HIT:     112024 MISS:     125032
cpu0_L1D PREFETCH REQUESTED:    6432970 ISSUED:     962703 USEFUL:      91710 USELESS:       3618
cpu0_L1D AVERAGE MISS LATENCY: 200.1 cycles
cpu0_L1I TOTAL        ACCESS:    4640970 HIT:    4640970 MISS:          0
cpu0_L1I LOAD         ACCESS:    4640970 HIT:    4640970 MISS:          0
cpu0_L1I RFO          ACCESS:          0 HIT:          0 MISS:          0
cpu0_L1I PREFETCH     ACCESS:          0 HIT:          0 MISS:          0
cpu0_L1I WRITE        ACCESS:          0 HIT:          0 MISS:          0
cpu0_L1I TRANSLATION  ACCESS:          0 HIT:          0 MISS:          0
cpu0_L1I PREFETCH REQUESTED:          0 ISSUED:          0 USEFUL:          0 USELESS:          0
cpu0_L1I AVERAGE MISS LATENCY: -nan cycles
cpu0_L2C TOTAL        ACCESS:     861044 HIT:     609498 MISS:     251546
cpu0_L2C LOAD         ACCESS:     195217 HIT:     158020 MISS:      37197
cpu0_L2C RFO          ACCESS:      68899 HIT:       1892 MISS:      67007
cpu0_L2C PREFETCH     ACCESS:     401018 HIT:     264388 MISS:     136630
cpu0_L2C WRITE        ACCESS:      70913 HIT:      70825 MISS:         88
cpu0_L2C TRANSLATION  ACCESS:     124997 HIT:     114373 MISS:      10624
cpu0_L2C PREFETCH REQUESTED:     305741 ISSUED:     305687 USEFUL:      68601 USELESS:        325
cpu0_L2C AVERAGE MISS LATENCY: 962.9 cycles
cpu0_STLB TOTAL        ACCESS:     434140 HIT:     306559 MISS:     127581
cpu0_STLB LOAD         ACCESS:     434140 HIT:     306559 MISS:     127581
cpu0_STLB RFO          ACCESS:          0 HIT:          0 MISS:          0
cpu0_STLB PREFETCH     ACCESS:          0 HIT:          0 MISS:          0
cpu0_STLB WRITE        ACCESS:          0 HIT:          0 MISS:          0
cpu0_STLB TRANSLATION  ACCESS:          0 HIT:          0 MISS:          0
cpu0_STLB PREFETCH REQUESTED:          0 ISSUED:          0 USEFUL:          0 USELESS:          0
cpu0_STLB AVERAGE MISS LATENCY: 161.5 cycles

DRAM Statistics

Channel 0 RQ ROW_BUFFER_HIT:      29813
  ROW_BUFFER_MISS:     189543
 AVG DBUS CONGESTED CYCLE: 3.941
WQ ROW_BUFFER_HIT: Channel 0 
  ROW_BUFFER_MISS:        969
  FULL:      70886
