WARNING: physical memory size is smaller than virtual memory size.

*** ChampSim Multicore Out-of-Order Simulator ***
Warmup Instructions: 25000000
Simulation Instructions: 25000000
Number of CPUs: 1
Page size: 4096

Off-chip DRAM Size: 4 GiB Channels: 1 Width: 64-bit Data Race: 800 MT/s
Heartbeat CPU 0 instructions: 10000003 cycles: 2534690 heartbeat IPC: 3.945 cumulative IPC: 3.945 (Simulation time: 00 hr 00 min 30 sec)
Heartbeat CPU 0 instructions: 20000002 cycles: 5035011 heartbeat IPC: 3.999 cumulative IPC: 3.972 (Simulation time: 00 hr 01 min 00 sec)
Warmup finished CPU 0 instructions: 25000001 cycles: 6285095 cumulative IPC: 3.978 (Simulation time: 00 hr 01 min 15 sec)
Warmup complete CPU 0 instructions: 25000001 cycles: 6285095 cumulative IPC: 3.978 (Simulation time: 00 hr 01 min 15 sec)
Heartbeat CPU 0 instructions: 30000002 cycles: 7829215 heartbeat IPC: 3.579 cumulative IPC: 3.238 (Simulation time: 00 hr 01 min 35 sec)
Heartbeat CPU 0 instructions: 40000000 cycles: 11073468 heartbeat IPC: 3.082 cumulative IPC: 3.133 (Simulation time: 00 hr 02 min 18 sec)
Heartbeat CPU 0 instructions: 50000000 cycles: 15114797 heartbeat IPC: 2.474 cumulative IPC: 2.831 (Simulation time: 00 hr 03 min 04 sec)
Simulation finished CPU 0 instructions: 25000003 cycles: 8829704 cumulative IPC: 2.831 (Simulation time: 00 hr 03 min 04 sec)
Simulation complete CPU 0 instructions: 25000003 cycles: 8829704 cumulative IPC: 2.831 (Simulation time: 00 hr 03 min 04 sec)

ChampSim completed all CPUs

=== Simulation ===
CPU 0 runs ./traces/calculix_3812B.trace.xz
Region of Interest Statistics

CPU 0 cumulative IPC: 2.831 instructions: 25000003 cycles: 8829704
CPU 0 Branch Prediction Accuracy: 97.86% MPKI: 1.848 Average ROB Occupancy at Mispredict: 144.8
Branch type MPKI
BRANCH_DIRECT_JUMP: 0.0127
BRANCH_INDIRECT: 0.00208
BRANCH_CONDITIONAL: 1.83
BRANCH_DIRECT_CALL: 0.00068
BRANCH_INDIRECT_CALL: 0
BRANCH_RETURN: 0.00076

LLC TOTAL        ACCESS:     229586 HIT:     198408 MISS:      31178
LLC LOAD         ACCESS:      97343 HIT:      87907 MISS:       9436
LLC RFO          ACCESS:      28311 HIT:       7239 MISS:      21072
LLC PREFETCH     ACCESS:          0 HIT:          0 MISS:          0
LLC WRITE        ACCESS:     103856 HIT:     103231 MISS:        625
LLC TRANSLATION  ACCESS:         76 HIT:         31 MISS:         45
LLC PREFETCH REQUESTED:          0 ISSUED:          0 USEFUL:          0 USELESS:          0
LLC AVERAGE MISS LATENCY: 721.7 cycles
cpu0_DTLB TOTAL        ACCESS:    4864968 HIT:    4843594 MISS:      21374
cpu0_DTLB LOAD         ACCESS:    4864968 HIT:    4843594 MISS:      21374
cpu0_DTLB RFO          ACCESS:          0 HIT:          0 MISS:          0
cpu0_DTLB PREFETCH     ACCESS:          0 HIT:          0 MISS:          0
cpu0_DTLB WRITE        ACCESS:          0 HIT:          0 MISS:          0
cpu0_DTLB TRANSLATION  ACCESS:          0 HIT:          0 MISS:          0
cpu0_DTLB PREFETCH REQUESTED:          0 ISSUED:          0 USEFUL:          0 USELESS:          0
cpu0_DTLB AVERAGE MISS LATENCY: 8.942 cycles
cpu0_ITLB TOTAL        ACCESS:      22172 HIT:      22130 MISS:         42
cpu0_ITLB LOAD         ACCESS:      22172 HIT:      22130 MISS:         42
cpu0_ITLB RFO          ACCESS:          0 HIT:          0 MISS:          0
cpu0_ITLB PREFETCH     ACCESS:          0 HIT:          0 MISS:          0
cpu0_ITLB WRITE        ACCESS:          0 HIT:          0 MISS:          0
cpu0_ITLB TRANSLATION  ACCESS:          0 HIT:          0 MISS:          0
cpu0_ITLB PREFETCH REQUESTED:          0 ISSUED:          0 USEFUL:          0 USELESS:          0
cpu0_ITLB AVERAGE MISS LATENCY: 3.119 cycles
cpu0_L1D TOTAL        ACCESS:    6883597 HIT:    5553449 MISS:    1330148
cpu0_L1D LOAD         ACCESS:    4515862 HIT:    3345050 MISS:    1170812
cpu0_L1D RFO          ACCESS:          0 HIT:          0 MISS:          0
cpu0_L1D PREFETCH     ACCESS:          0 HIT:          0 MISS:          0
cpu0_L1D WRITE        ACCESS:    2367237 HIT:    2208028 MISS:     159209
cpu0_L1D TRANSLATION  ACCESS:        498 HIT:        371 MISS:        127
cpu0_L1D PREFETCH REQUESTED:          0 ISSUED:          0 USEFUL:          0 USELESS:          0
cpu0_L1D AVERAGE MISS LATENCY: 19.45 cycles
cpu0_L1I TOTAL        ACCESS:      24890 HIT:      23451 MISS:       1439
cpu0_L1I LOAD         ACCESS:      24890 HIT:      23451 MISS:       1439
cpu0_L1I RFO          ACCESS:          0 HIT:          0 MISS:          0
cpu0_L1I PREFETCH     ACCESS:          0 HIT:          0 MISS:          0
cpu0_L1I WRITE        ACCESS:          0 HIT:          0 MISS:          0
cpu0_L1I TRANSLATION  ACCESS:          0 HIT:          0 MISS:          0
cpu0_L1I PREFETCH REQUESTED:          0 ISSUED:          0 USEFUL:          0 USELESS:          0
cpu0_L1I AVERAGE MISS LATENCY: 40.06 cycles
cpu0_L2C TOTAL        ACCESS:     663051 HIT:     535656 MISS:     127395
cpu0_L2C LOAD         ACCESS:     359984 HIT:     262641 MISS:      97343
cpu0_L2C RFO          ACCESS:      32665 HIT:       4354 MISS:      28311
cpu0_L2C PREFETCH     ACCESS:          0 HIT:          0 MISS:          0
cpu0_L2C WRITE        ACCESS:     270275 HIT:     268610 MISS:       1665
cpu0_L2C TRANSLATION  ACCESS:        127 HIT:         51 MISS:         76
cpu0_L2C PREFETCH REQUESTED:          0 ISSUED:          0 USEFUL:          0 USELESS:          0
cpu0_L2C AVERAGE MISS LATENCY: 196.6 cycles
cpu0_STLB TOTAL        ACCESS:      12036 HIT:      11540 MISS:        496
cpu0_STLB LOAD         ACCESS:      12036 HIT:      11540 MISS:        496
cpu0_STLB RFO          ACCESS:          0 HIT:          0 MISS:          0
cpu0_STLB PREFETCH     ACCESS:          0 HIT:          0 MISS:          0
cpu0_STLB WRITE        ACCESS:          0 HIT:          0 MISS:          0
cpu0_STLB TRANSLATION  ACCESS:          0 HIT:          0 MISS:          0
cpu0_STLB PREFETCH REQUESTED:          0 ISSUED:          0 USEFUL:          0 USELESS:          0
cpu0_STLB AVERAGE MISS LATENCY: 265 cycles

DRAM Statistics

Channel 0 RQ ROW_BUFFER_HIT:      23506
  ROW_BUFFER_MISS:       7046
 AVG DBUS CONGESTED CYCLE: 3.97
WQ ROW_BUFFER_HIT: Channel 0 
  ROW_BUFFER_MISS:       1029
  FULL:       7153
