WARNING: physical memory size is smaller than virtual memory size.

*** ChampSim Multicore Out-of-Order Simulator ***
Warmup Instructions: 25000000
Simulation Instructions: 25000000
Number of CPUs: 1
Page size: 4096

Off-chip DRAM Size: 4 GiB Channels: 1 Width: 64-bit Data Race: 800 MT/s
Heartbeat CPU 0 instructions: 10000000 cycles: 2763001 heartbeat IPC: 3.619 cumulative IPC: 3.619 (Simulation time: 00 hr 00 min 40 sec)
Heartbeat CPU 0 instructions: 20000003 cycles: 5343815 heartbeat IPC: 3.875 cumulative IPC: 3.743 (Simulation time: 00 hr 01 min 22 sec)
Warmup finished CPU 0 instructions: 25000003 cycles: 6775771 cumulative IPC: 3.69 (Simulation time: 00 hr 01 min 44 sec)
Warmup complete CPU 0 instructions: 25000003 cycles: 6775771 cumulative IPC: 3.69 (Simulation time: 00 hr 01 min 44 sec)
Heartbeat CPU 0 instructions: 30000001 cycles: 26183877 heartbeat IPC: 0.4798 cumulative IPC: 0.2576 (Simulation time: 00 hr 03 min 50 sec)
Heartbeat CPU 0 instructions: 40000003 cycles: 59174973 heartbeat IPC: 0.3031 cumulative IPC: 0.2863 (Simulation time: 00 hr 07 min 42 sec)
Heartbeat CPU 0 instructions: 50000000 cycles: 73947291 heartbeat IPC: 0.6769 cumulative IPC: 0.3722 (Simulation time: 00 hr 09 min 29 sec)
Simulation finished CPU 0 instructions: 25000000 cycles: 67171531 cumulative IPC: 0.3722 (Simulation time: 00 hr 09 min 29 sec)
Simulation complete CPU 0 instructions: 25000000 cycles: 67171531 cumulative IPC: 0.3722 (Simulation time: 00 hr 09 min 29 sec)

ChampSim completed all CPUs

=== Simulation ===
CPU 0 runs ./traces/gcc_13B.trace.xz
Region of Interest Statistics

CPU 0 cumulative IPC: 0.3722 instructions: 25000000 cycles: 67171531
CPU 0 Branch Prediction Accuracy: 87.06% MPKI: 28.41 Average ROB Occupancy at Mispredict: 26.42
Branch type MPKI
BRANCH_DIRECT_JUMP: 0.00096
BRANCH_INDIRECT: 0
BRANCH_CONDITIONAL: 27.4
BRANCH_DIRECT_CALL: 0.00084
BRANCH_INDIRECT_CALL: 0.002
BRANCH_RETURN: 1

LLC TOTAL        ACCESS:     729651 HIT:     166076 MISS:     563575
LLC LOAD         ACCESS:     420382 HIT:      37743 MISS:     382639
LLC RFO          ACCESS:      99782 HIT:      19185 MISS:      80597
LLC PREFETCH     ACCESS:          0 HIT:          0 MISS:          0
LLC WRITE        ACCESS:     202683 HIT:     107151 MISS:      95532
LLC TRANSLATION  ACCESS:       6804 HIT:       1997 MISS:       4807
LLC PREFETCH REQUESTED:          0 ISSUED:          0 USEFUL:          0 USELESS:          0
LLC AVERAGE MISS LATENCY: 561 cycles
cpu0_DTLB TOTAL        ACCESS:    6842511 HIT:    6767365 MISS:      75146
cpu0_DTLB LOAD         ACCESS:    6842511 HIT:    6767365 MISS:      75146
cpu0_DTLB RFO          ACCESS:          0 HIT:          0 MISS:          0
cpu0_DTLB PREFETCH     ACCESS:          0 HIT:          0 MISS:          0
cpu0_DTLB WRITE        ACCESS:          0 HIT:          0 MISS:          0
cpu0_DTLB TRANSLATION  ACCESS:          0 HIT:          0 MISS:          0
cpu0_DTLB PREFETCH REQUESTED:          0 ISSUED:          0 USEFUL:          0 USELESS:          0
cpu0_DTLB AVERAGE MISS LATENCY: 89.91 cycles
cpu0_ITLB TOTAL        ACCESS:        427 HIT:        412 MISS:         15
cpu0_ITLB LOAD         ACCESS:        427 HIT:        412 MISS:         15
cpu0_ITLB RFO          ACCESS:          0 HIT:          0 MISS:          0
cpu0_ITLB PREFETCH     ACCESS:          0 HIT:          0 MISS:          0
cpu0_ITLB WRITE        ACCESS:          0 HIT:          0 MISS:          0
cpu0_ITLB TRANSLATION  ACCESS:          0 HIT:          0 MISS:          0
cpu0_ITLB PREFETCH REQUESTED:          0 ISSUED:          0 USEFUL:          0 USELESS:          0
cpu0_ITLB AVERAGE MISS LATENCY: 541.6 cycles
cpu0_L1D TOTAL        ACCESS:    8985815 HIT:    6900448 MISS:    2085367
cpu0_L1D LOAD         ACCESS:    5358249 HIT:    3827355 MISS:    1530894
cpu0_L1D RFO          ACCESS:          0 HIT:          0 MISS:          0
cpu0_L1D PREFETCH     ACCESS:          0 HIT:          0 MISS:          0
cpu0_L1D WRITE        ACCESS:    3605661 HIT:    3064611 MISS:     541050
cpu0_L1D TRANSLATION  ACCESS:      21905 HIT:       8482 MISS:      13423
cpu0_L1D PREFETCH REQUESTED:          0 ISSUED:          0 USEFUL:          0 USELESS:          0
cpu0_L1D AVERAGE MISS LATENCY: 141.4 cycles
cpu0_L1I TOTAL        ACCESS:        494 HIT:        424 MISS:         70
cpu0_L1I LOAD         ACCESS:        494 HIT:        424 MISS:         70
cpu0_L1I RFO          ACCESS:          0 HIT:          0 MISS:          0
cpu0_L1I PREFETCH     ACCESS:          0 HIT:          0 MISS:          0
cpu0_L1I WRITE        ACCESS:          0 HIT:          0 MISS:          0
cpu0_L1I TRANSLATION  ACCESS:          0 HIT:          0 MISS:          0
cpu0_L1I PREFETCH REQUESTED:          0 ISSUED:          0 USEFUL:          0 USELESS:          0
cpu0_L1I AVERAGE MISS LATENCY: 286 cycles
cpu0_L2C TOTAL        ACCESS:     752702 HIT:     225709 MISS:     526993
cpu0_L2C LOAD         ACCESS:     435199 HIT:      14817 MISS:     420382
cpu0_L2C RFO          ACCESS:     100573 HIT:        791 MISS:      99782
cpu0_L2C PREFETCH     ACCESS:          0 HIT:          0 MISS:          0
cpu0_L2C WRITE        ACCESS:     203532 HIT:     203507 MISS:         25
cpu0_L2C TRANSLATION  ACCESS:      13398 HIT:       6594 MISS:       6804
cpu0_L2C PREFETCH REQUESTED:          0 ISSUED:          0 USEFUL:          0 USELESS:          0
cpu0_L2C AVERAGE MISS LATENCY: 620.9 cycles
cpu0_STLB TOTAL        ACCESS:      30389 HIT:       8590 MISS:      21799
cpu0_STLB LOAD         ACCESS:      30389 HIT:       8590 MISS:      21799
cpu0_STLB RFO          ACCESS:          0 HIT:          0 MISS:          0
cpu0_STLB PREFETCH     ACCESS:          0 HIT:          0 MISS:          0
cpu0_STLB WRITE        ACCESS:          0 HIT:          0 MISS:          0
cpu0_STLB TRANSLATION  ACCESS:          0 HIT:          0 MISS:          0
cpu0_STLB PREFETCH REQUESTED:          0 ISSUED:          0 USEFUL:          0 USELESS:          0
cpu0_STLB AVERAGE MISS LATENCY: 398.8 cycles

DRAM Statistics

Channel 0 RQ ROW_BUFFER_HIT:     155932
  ROW_BUFFER_MISS:     312097
 AVG DBUS CONGESTED CYCLE: 3.907
WQ ROW_BUFFER_HIT: Channel 0 
  ROW_BUFFER_MISS:      30057
  FULL:     160668
