WARNING: physical memory size is smaller than virtual memory size.

*** ChampSim Multicore Out-of-Order Simulator ***
Warmup Instructions: 25000000
Simulation Instructions: 25000000
Number of CPUs: 1
Page size: 4096

Off-chip DRAM Size: 4 GiB Channels: 1 Width: 64-bit Data Race: 800 MT/s
Heartbeat CPU 0 instructions: 10000002 cycles: 2500115 heartbeat IPC: 4 cumulative IPC: 4 (Simulation time: 00 hr 00 min 39 sec)
Heartbeat CPU 0 instructions: 20000002 cycles: 5000115 heartbeat IPC: 4 cumulative IPC: 4 (Simulation time: 00 hr 01 min 21 sec)
Warmup finished CPU 0 instructions: 25000001 cycles: 6256845 cumulative IPC: 3.996 (Simulation time: 00 hr 01 min 40 sec)
Warmup complete CPU 0 instructions: 25000001 cycles: 6256845 cumulative IPC: 3.996 (Simulation time: 00 hr 01 min 40 sec)
Heartbeat CPU 0 instructions: 30000001 cycles: 20630209 heartbeat IPC: 0.6398 cumulative IPC: 0.3479 (Simulation time: 00 hr 03 min 48 sec)
Heartbeat CPU 0 instructions: 40000002 cycles: 25954145 heartbeat IPC: 1.878 cumulative IPC: 0.7615 (Simulation time: 00 hr 04 min 49 sec)
Heartbeat CPU 0 instructions: 50000002 cycles: 52277573 heartbeat IPC: 0.3799 cumulative IPC: 0.5432 (Simulation time: 00 hr 08 min 57 sec)
Simulation finished CPU 0 instructions: 25000001 cycles: 46020729 cumulative IPC: 0.5432 (Simulation time: 00 hr 08 min 57 sec)
Simulation complete CPU 0 instructions: 25000001 cycles: 46020729 cumulative IPC: 0.5432 (Simulation time: 00 hr 08 min 57 sec)

ChampSim completed all CPUs

=== Simulation ===
CPU 0 runs ./traces/GemsFDTD_109B.trace.xz
Region of Interest Statistics

CPU 0 cumulative IPC: 0.5432 instructions: 25000001 cycles: 46020729
CPU 0 Branch Prediction Accuracy: 92.35% MPKI: 9.67 Average ROB Occupancy at Mispredict: 136.1
Branch type MPKI
BRANCH_DIRECT_JUMP: 0.0625
BRANCH_INDIRECT: 0
BRANCH_CONDITIONAL: 5.04
BRANCH_DIRECT_CALL: 0.00192
BRANCH_INDIRECT_CALL: 0
BRANCH_RETURN: 4.56

LLC TOTAL        ACCESS:     806686 HIT:     412198 MISS:     394488
LLC LOAD         ACCESS:     426783 HIT:      89439 MISS:     337344
LLC RFO          ACCESS:      96966 HIT:      94598 MISS:       2368
LLC PREFETCH     ACCESS:          0 HIT:          0 MISS:          0
LLC WRITE        ACCESS:     271906 HIT:     227869 MISS:      44037
LLC TRANSLATION  ACCESS:      11031 HIT:        292 MISS:      10739
LLC PREFETCH REQUESTED:          0 ISSUED:          0 USEFUL:          0 USELESS:          0
LLC AVERAGE MISS LATENCY: 1327 cycles
cpu0_DTLB TOTAL        ACCESS:    4947801 HIT:    4703508 MISS:     244293
cpu0_DTLB LOAD         ACCESS:    4947801 HIT:    4703508 MISS:     244293
cpu0_DTLB RFO          ACCESS:          0 HIT:          0 MISS:          0
cpu0_DTLB PREFETCH     ACCESS:          0 HIT:          0 MISS:          0
cpu0_DTLB WRITE        ACCESS:          0 HIT:          0 MISS:          0
cpu0_DTLB TRANSLATION  ACCESS:          0 HIT:          0 MISS:          0
cpu0_DTLB PREFETCH REQUESTED:          0 ISSUED:          0 USEFUL:          0 USELESS:          0
cpu0_DTLB AVERAGE MISS LATENCY: 221.5 cycles
cpu0_ITLB TOTAL        ACCESS:        872 HIT:        855 MISS:         17
cpu0_ITLB LOAD         ACCESS:        872 HIT:        855 MISS:         17
cpu0_ITLB RFO          ACCESS:          0 HIT:          0 MISS:          0
cpu0_ITLB PREFETCH     ACCESS:          0 HIT:          0 MISS:          0
cpu0_ITLB WRITE        ACCESS:          0 HIT:          0 MISS:          0
cpu0_ITLB TRANSLATION  ACCESS:          0 HIT:          0 MISS:          0
cpu0_ITLB PREFETCH REQUESTED:          0 ISSUED:          0 USEFUL:          0 USELESS:          0
cpu0_ITLB AVERAGE MISS LATENCY: 573.4 cycles
cpu0_L1D TOTAL        ACCESS:    6276910 HIT:    4200950 MISS:    2075960
cpu0_L1D LOAD         ACCESS:    3674587 HIT:    2237808 MISS:    1436779
cpu0_L1D RFO          ACCESS:          0 HIT:          0 MISS:          0
cpu0_L1D PREFETCH     ACCESS:          0 HIT:          0 MISS:          0
cpu0_L1D WRITE        ACCESS:    2503279 HIT:    1886508 MISS:     616771
cpu0_L1D TRANSLATION  ACCESS:      99044 HIT:      76634 MISS:      22410
cpu0_L1D PREFETCH REQUESTED:          0 ISSUED:          0 USEFUL:          0 USELESS:          0
cpu0_L1D AVERAGE MISS LATENCY: 247.3 cycles
cpu0_L1I TOTAL        ACCESS:       1046 HIT:        603 MISS:        443
cpu0_L1I LOAD         ACCESS:       1046 HIT:        603 MISS:        443
cpu0_L1I RFO          ACCESS:          0 HIT:          0 MISS:          0
cpu0_L1I PREFETCH     ACCESS:          0 HIT:          0 MISS:          0
cpu0_L1I WRITE        ACCESS:          0 HIT:          0 MISS:          0
cpu0_L1I TRANSLATION  ACCESS:          0 HIT:          0 MISS:          0
cpu0_L1I PREFETCH REQUESTED:          0 ISSUED:          0 USEFUL:          0 USELESS:          0
cpu0_L1I AVERAGE MISS LATENCY: 390.5 cycles
cpu0_L2C TOTAL        ACCESS:     863537 HIT:     328713 MISS:     534824
cpu0_L2C LOAD         ACCESS:     472954 HIT:      46171 MISS:     426783
cpu0_L2C RFO          ACCESS:      97031 HIT:         65 MISS:      96966
cpu0_L2C PREFETCH     ACCESS:          0 HIT:          0 MISS:          0
cpu0_L2C WRITE        ACCESS:     271384 HIT:     271340 MISS:         44
cpu0_L2C TRANSLATION  ACCESS:      22168 HIT:      11137 MISS:      11031
cpu0_L2C PREFETCH REQUESTED:          0 ISSUED:          0 USEFUL:          0 USELESS:          0
cpu0_L2C AVERAGE MISS LATENCY: 999.7 cycles
cpu0_STLB TOTAL        ACCESS:     121247 HIT:      23090 MISS:      98157
cpu0_STLB LOAD         ACCESS:     121247 HIT:      23090 MISS:      98157
cpu0_STLB RFO          ACCESS:          0 HIT:          0 MISS:          0
cpu0_STLB PREFETCH     ACCESS:          0 HIT:          0 MISS:          0
cpu0_STLB WRITE        ACCESS:          0 HIT:          0 MISS:          0
cpu0_STLB TRANSLATION  ACCESS:          0 HIT:          0 MISS:          0
cpu0_STLB PREFETCH REQUESTED:          0 ISSUED:          0 USEFUL:          0 USELESS:          0
cpu0_STLB AVERAGE MISS LATENCY: 713.9 cycles

DRAM Statistics

Channel 0 RQ ROW_BUFFER_HIT:     118985
  ROW_BUFFER_MISS:     231451
 AVG DBUS CONGESTED CYCLE: 3.921
WQ ROW_BUFFER_HIT: Channel 0 
  ROW_BUFFER_MISS:       5511
  FULL:     186446
