WARNING: physical memory size is smaller than virtual memory size.

*** ChampSim Multicore Out-of-Order Simulator ***
Warmup Instructions: 25000000
Simulation Instructions: 25000000
Number of CPUs: 1
Page size: 4096

Off-chip DRAM Size: 4 GiB Channels: 1 Width: 64-bit Data Race: 800 MT/s
Heartbeat CPU 0 instructions: 10000003 cycles: 2500121 heartbeat IPC: 4 cumulative IPC: 4 (Simulation time: 00 hr 00 min 40 sec)
Heartbeat CPU 0 instructions: 20000003 cycles: 5000121 heartbeat IPC: 4 cumulative IPC: 4 (Simulation time: 00 hr 01 min 23 sec)
Warmup finished CPU 0 instructions: 25000003 cycles: 6250122 cumulative IPC: 4 (Simulation time: 00 hr 01 min 44 sec)
Warmup complete CPU 0 instructions: 25000003 cycles: 6250122 cumulative IPC: 4 (Simulation time: 00 hr 01 min 44 sec)
Heartbeat CPU 0 instructions: 30000001 cycles: 31603385 heartbeat IPC: 0.3759 cumulative IPC: 0.1972 (Simulation time: 00 hr 05 min 27 sec)
Heartbeat CPU 0 instructions: 40000000 cycles: 82356970 heartbeat IPC: 0.197 cumulative IPC: 0.1971 (Simulation time: 00 hr 13 min 12 sec)
Heartbeat CPU 0 instructions: 50000000 cycles: 133037126 heartbeat IPC: 0.1973 cumulative IPC: 0.1972 (Simulation time: 00 hr 20 min 25 sec)
Simulation finished CPU 0 instructions: 25000001 cycles: 126787006 cumulative IPC: 0.1972 (Simulation time: 00 hr 20 min 25 sec)
Simulation complete CPU 0 instructions: 25000001 cycles: 126787006 cumulative IPC: 0.1972 (Simulation time: 00 hr 20 min 25 sec)

ChampSim completed all CPUs

=== Simulation ===
CPU 0 runs ./traces/GemsFDTD_712B.trace.xz
Region of Interest Statistics

CPU 0 cumulative IPC: 0.1972 instructions: 25000001 cycles: 126787006
CPU 0 Branch Prediction Accuracy: 97.29% MPKI: 0.5323 Average ROB Occupancy at Mispredict: 313.6
Branch type MPKI
BRANCH_DIRECT_JUMP: 0
BRANCH_INDIRECT: 0
BRANCH_CONDITIONAL: 0.532
BRANCH_DIRECT_CALL: 0
BRANCH_INDIRECT_CALL: 0
BRANCH_RETURN: 0

LLC TOTAL        ACCESS:    1317837 HIT:     167247 MISS:    1150590
LLC LOAD         ACCESS:     957881 HIT:      62243 MISS:     895638
LLC RFO          ACCESS:          0 HIT:          0 MISS:          0
LLC PREFETCH     ACCESS:          0 HIT:          0 MISS:          0
LLC WRITE        ACCESS:     358827 HIT:     104341 MISS:     254486
LLC TRANSLATION  ACCESS:       1129 HIT:        663 MISS:        466
LLC PREFETCH REQUESTED:          0 ISSUED:          0 USEFUL:          0 USELESS:          0
LLC AVERAGE MISS LATENCY: 1240 cycles
cpu0_DTLB TOTAL        ACCESS:    8087598 HIT:    8041277 MISS:      46321
cpu0_DTLB LOAD         ACCESS:    8087598 HIT:    8041277 MISS:      46321
cpu0_DTLB RFO          ACCESS:          0 HIT:          0 MISS:          0
cpu0_DTLB PREFETCH     ACCESS:          0 HIT:          0 MISS:          0
cpu0_DTLB WRITE        ACCESS:          0 HIT:          0 MISS:          0
cpu0_DTLB TRANSLATION  ACCESS:          0 HIT:          0 MISS:          0
cpu0_DTLB PREFETCH REQUESTED:          0 ISSUED:          0 USEFUL:          0 USELESS:          0
cpu0_DTLB AVERAGE MISS LATENCY: 45.03 cycles
cpu0_ITLB TOTAL        ACCESS:          0 HIT:          0 MISS:          0
cpu0_ITLB LOAD         ACCESS:          0 HIT:          0 MISS:          0
cpu0_ITLB RFO          ACCESS:          0 HIT:          0 MISS:          0
cpu0_ITLB PREFETCH     ACCESS:          0 HIT:          0 MISS:          0
cpu0_ITLB WRITE        ACCESS:          0 HIT:          0 MISS:          0
cpu0_ITLB TRANSLATION  ACCESS:          0 HIT:          0 MISS:          0
cpu0_ITLB PREFETCH REQUESTED:          0 ISSUED:          0 USEFUL:          0 USELESS:          0
cpu0_ITLB AVERAGE MISS LATENCY: -nan cycles
cpu0_L1D TOTAL        ACCESS:   10316616 HIT:    5010896 MISS:    5305720
cpu0_L1D LOAD         ACCESS:    7911505 HIT:    2617518 MISS:    5293987
cpu0_L1D RFO          ACCESS:          0 HIT:          0 MISS:          0
cpu0_L1D PREFETCH     ACCESS:          0 HIT:          0 MISS:          0
cpu0_L1D WRITE        ACCESS:    2392769 HIT:    2392744 MISS:         25
cpu0_L1D TRANSLATION  ACCESS:      12342 HIT:        634 MISS:      11708
cpu0_L1D PREFETCH REQUESTED:          0 ISSUED:          0 USEFUL:          0 USELESS:          0
cpu0_L1D AVERAGE MISS LATENCY: 176.7 cycles
cpu0_L1I TOTAL        ACCESS:          0 HIT:          0 MISS:          0
cpu0_L1I LOAD         ACCESS:          0 HIT:          0 MISS:          0
cpu0_L1I RFO          ACCESS:          0 HIT:          0 MISS:          0
cpu0_L1I PREFETCH     ACCESS:          0 HIT:          0 MISS:          0
cpu0_L1I WRITE        ACCESS:          0 HIT:          0 MISS:          0
cpu0_L1I TRANSLATION  ACCESS:          0 HIT:          0 MISS:          0
cpu0_L1I PREFETCH REQUESTED:          0 ISSUED:          0 USEFUL:          0 USELESS:          0
cpu0_L1I AVERAGE MISS LATENCY: -nan cycles
cpu0_L2C TOTAL        ACCESS:    1333909 HIT:     374800 MISS:     959109
cpu0_L2C LOAD         ACCESS:     961617 HIT:       3736 MISS:     957881
cpu0_L2C RFO          ACCESS:          5 HIT:          5 MISS:          0
cpu0_L2C PREFETCH     ACCESS:          0 HIT:          0 MISS:          0
cpu0_L2C WRITE        ACCESS:     360579 HIT:     360480 MISS:         99
cpu0_L2C TRANSLATION  ACCESS:      11708 HIT:      10579 MISS:       1129
cpu0_L2C PREFETCH REQUESTED:          0 ISSUED:          0 USEFUL:          0 USELESS:          0
cpu0_L2C AVERAGE MISS LATENCY: 1508 cycles
cpu0_STLB TOTAL        ACCESS:      16424 HIT:       4111 MISS:      12313
cpu0_STLB LOAD         ACCESS:      16424 HIT:       4111 MISS:      12313
cpu0_STLB RFO          ACCESS:          0 HIT:          0 MISS:          0
cpu0_STLB PREFETCH     ACCESS:          0 HIT:          0 MISS:          0
cpu0_STLB WRITE        ACCESS:          0 HIT:          0 MISS:          0
cpu0_STLB TRANSLATION  ACCESS:          0 HIT:          0 MISS:          0
cpu0_STLB PREFETCH REQUESTED:          0 ISSUED:          0 USEFUL:          0 USELESS:          0
cpu0_STLB AVERAGE MISS LATENCY: 284.7 cycles

DRAM Statistics

Channel 0 RQ ROW_BUFFER_HIT:     544140
  ROW_BUFFER_MISS:     351955
 AVG DBUS CONGESTED CYCLE: 3.913
WQ ROW_BUFFER_HIT: Channel 0 
  ROW_BUFFER_MISS:      51780
  FULL:     306388
