WARNING: physical memory size is smaller than virtual memory size.

*** ChampSim Multicore Out-of-Order Simulator ***
Warmup Instructions: 25000000
Simulation Instructions: 25000000
Number of CPUs: 1
Page size: 4096

Off-chip DRAM Size: 4 GiB Channels: 1 Width: 64-bit Data Race: 800 MT/s
Heartbeat CPU 0 instructions: 10000002 cycles: 2500121 heartbeat IPC: 4 cumulative IPC: 4 (Simulation time: 00 hr 00 min 55 sec)
Heartbeat CPU 0 instructions: 20000002 cycles: 5000121 heartbeat IPC: 4 cumulative IPC: 4 (Simulation time: 00 hr 01 min 55 sec)
Warmup finished CPU 0 instructions: 25000002 cycles: 6250122 cumulative IPC: 4 (Simulation time: 00 hr 02 min 26 sec)
Warmup complete CPU 0 instructions: 25000002 cycles: 6250122 cumulative IPC: 4 (Simulation time: 00 hr 02 min 26 sec)
Heartbeat CPU 0 instructions: 30000001 cycles: 29216655 heartbeat IPC: 0.4129 cumulative IPC: 0.2177 (Simulation time: 00 hr 06 min 48 sec)
Heartbeat CPU 0 instructions: 40000000 cycles: 74004410 heartbeat IPC: 0.2233 cumulative IPC: 0.2214 (Simulation time: 00 hr 15 min 57 sec)
Heartbeat CPU 0 instructions: 50000002 cycles: 118868235 heartbeat IPC: 0.2229 cumulative IPC: 0.222 (Simulation time: 00 hr 25 min 03 sec)
Simulation finished CPU 0 instructions: 25000000 cycles: 112618114 cumulative IPC: 0.222 (Simulation time: 00 hr 25 min 03 sec)
Simulation complete CPU 0 instructions: 25000000 cycles: 112618114 cumulative IPC: 0.222 (Simulation time: 00 hr 25 min 03 sec)

ChampSim completed all CPUs

=== Simulation ===
CPU 0 runs ./traces/GemsFDTD_712B.trace.xz
Region of Interest Statistics

CPU 0 cumulative IPC: 0.222 instructions: 25000000 cycles: 112618114
CPU 0 Branch Prediction Accuracy: 97.29% MPKI: 0.5323 Average ROB Occupancy at Mispredict: 311.6
Branch type MPKI
BRANCH_DIRECT_JUMP: 0
BRANCH_INDIRECT: 0
BRANCH_CONDITIONAL: 0.532
BRANCH_DIRECT_CALL: 0
BRANCH_INDIRECT_CALL: 0
BRANCH_RETURN: 0

LLC TOTAL        ACCESS:    1373989 HIT:     237627 MISS:    1136362
LLC LOAD         ACCESS:     315289 HIT:      28700 MISS:     286589
LLC RFO          ACCESS:          0 HIT:          0 MISS:          0
LLC PREFETCH     ACCESS:     698816 HIT:      46620 MISS:     652196
LLC WRITE        ACCESS:     358756 HIT:     161493 MISS:     197263
LLC TRANSLATION  ACCESS:       1128 HIT:        814 MISS:        314
LLC PREFETCH REQUESTED:          0 ISSUED:          0 USEFUL:          0 USELESS:          0
LLC AVERAGE MISS LATENCY: 1413 cycles
cpu0_DTLB TOTAL        ACCESS:    7192702 HIT:    7145161 MISS:      47541
cpu0_DTLB LOAD         ACCESS:    7192702 HIT:    7145161 MISS:      47541
cpu0_DTLB RFO          ACCESS:          0 HIT:          0 MISS:          0
cpu0_DTLB PREFETCH     ACCESS:          0 HIT:          0 MISS:          0
cpu0_DTLB WRITE        ACCESS:          0 HIT:          0 MISS:          0
cpu0_DTLB TRANSLATION  ACCESS:          0 HIT:          0 MISS:          0
cpu0_DTLB PREFETCH REQUESTED:          0 ISSUED:          0 USEFUL:          0 USELESS:          0
cpu0_DTLB AVERAGE MISS LATENCY: 50.29 cycles
cpu0_ITLB TOTAL        ACCESS:          0 HIT:          0 MISS:          0
cpu0_ITLB LOAD         ACCESS:          0 HIT:          0 MISS:          0
cpu0_ITLB RFO          ACCESS:          0 HIT:          0 MISS:          0
cpu0_ITLB PREFETCH     ACCESS:          0 HIT:          0 MISS:          0
cpu0_ITLB WRITE        ACCESS:          0 HIT:          0 MISS:          0
cpu0_ITLB TRANSLATION  ACCESS:          0 HIT:          0 MISS:          0
cpu0_ITLB PREFETCH REQUESTED:          0 ISSUED:          0 USEFUL:          0 USELESS:          0
cpu0_ITLB AVERAGE MISS LATENCY: -nan cycles
cpu0_L1D TOTAL        ACCESS:   11808543 HIT:    6239398 MISS:    5569145
cpu0_L1D LOAD         ACCESS:    6658443 HIT:    2959763 MISS:    3698680
cpu0_L1D RFO          ACCESS:          0 HIT:          0 MISS:          0
cpu0_L1D PREFETCH     ACCESS:    2748682 HIT:     890490 MISS:    1858192
cpu0_L1D WRITE        ACCESS:    2389076 HIT:    2389060 MISS:         16
cpu0_L1D TRANSLATION  ACCESS:      12342 HIT:         85 MISS:      12257
cpu0_L1D PREFETCH REQUESTED:   13739841 ISSUED:    2748679 USEFUL:     625805 USELESS:      41558
cpu0_L1D AVERAGE MISS LATENCY: 145.9 cycles
cpu0_L1I TOTAL        ACCESS:          0 HIT:          0 MISS:          0
cpu0_L1I LOAD         ACCESS:          0 HIT:          0 MISS:          0
cpu0_L1I RFO          ACCESS:          0 HIT:          0 MISS:          0
cpu0_L1I PREFETCH     ACCESS:          0 HIT:          0 MISS:          0
cpu0_L1I WRITE        ACCESS:          0 HIT:          0 MISS:          0
cpu0_L1I TRANSLATION  ACCESS:          0 HIT:          0 MISS:          0
cpu0_L1I PREFETCH REQUESTED:          0 ISSUED:          0 USEFUL:          0 USELESS:          0
cpu0_L1I AVERAGE MISS LATENCY: -nan cycles
cpu0_L2C TOTAL        ACCESS:    1460494 HIT:     424477 MISS:    1036017
cpu0_L2C LOAD         ACCESS:     335637 HIT:      16931 MISS:     318706
cpu0_L2C RFO          ACCESS:          5 HIT:          5 MISS:          0
cpu0_L2C PREFETCH     ACCESS:     752605 HIT:      36496 MISS:     716109
cpu0_L2C WRITE        ACCESS:     359990 HIT:     359916 MISS:         74
cpu0_L2C TRANSLATION  ACCESS:      12257 HIT:      11129 MISS:       1128
cpu0_L2C PREFETCH REQUESTED:      85240 ISSUED:      85240 USEFUL:      43600 USELESS:       9194
cpu0_L2C AVERAGE MISS LATENCY: 1534 cycles
cpu0_STLB TOTAL        ACCESS:      16424 HIT:       4111 MISS:      12313
cpu0_STLB LOAD         ACCESS:      16424 HIT:       4111 MISS:      12313
cpu0_STLB RFO          ACCESS:          0 HIT:          0 MISS:          0
cpu0_STLB PREFETCH     ACCESS:          0 HIT:          0 MISS:          0
cpu0_STLB WRITE        ACCESS:          0 HIT:          0 MISS:          0
cpu0_STLB TRANSLATION  ACCESS:          0 HIT:          0 MISS:          0
cpu0_STLB PREFETCH REQUESTED:          0 ISSUED:          0 USEFUL:          0 USELESS:          0
cpu0_STLB AVERAGE MISS LATENCY: 311.4 cycles

DRAM Statistics

Channel 0 RQ ROW_BUFFER_HIT:     534570
  ROW_BUFFER_MISS:     395635
 AVG DBUS CONGESTED CYCLE: 3.889
WQ ROW_BUFFER_HIT: Channel 0 
  ROW_BUFFER_MISS:      24957
  FULL:     339849
