WARNING: physical memory size is smaller than virtual memory size.

*** ChampSim Multicore Out-of-Order Simulator ***
Warmup Instructions: 25000000
Simulation Instructions: 25000000
Number of CPUs: 1
Page size: 4096

Off-chip DRAM Size: 4 GiB Channels: 1 Width: 64-bit Data Race: 800 MT/s
Heartbeat CPU 0 instructions: 10000000 cycles: 2508559 heartbeat IPC: 3.986 cumulative IPC: 3.986 (Simulation time: 00 hr 00 min 33 sec)
Heartbeat CPU 0 instructions: 20000000 cycles: 5008559 heartbeat IPC: 4 cumulative IPC: 3.993 (Simulation time: 00 hr 01 min 17 sec)
Warmup finished CPU 0 instructions: 25000000 cycles: 6258560 cumulative IPC: 3.995 (Simulation time: 00 hr 01 min 38 sec)
Warmup complete CPU 0 instructions: 25000000 cycles: 6258560 cumulative IPC: 3.995 (Simulation time: 00 hr 01 min 38 sec)
Heartbeat CPU 0 instructions: 30000001 cycles: 11407862 heartbeat IPC: 1.563 cumulative IPC: 0.971 (Simulation time: 00 hr 02 min 36 sec)
Heartbeat CPU 0 instructions: 40000000 cycles: 19386242 heartbeat IPC: 1.253 cumulative IPC: 1.143 (Simulation time: 00 hr 04 min 10 sec)
Heartbeat CPU 0 instructions: 50000000 cycles: 41169404 heartbeat IPC: 0.4591 cumulative IPC: 0.7161 (Simulation time: 00 hr 07 min 40 sec)
Simulation finished CPU 0 instructions: 25000000 cycles: 34910845 cumulative IPC: 0.7161 (Simulation time: 00 hr 07 min 40 sec)
Simulation complete CPU 0 instructions: 25000000 cycles: 34910845 cumulative IPC: 0.7161 (Simulation time: 00 hr 07 min 40 sec)

ChampSim completed all CPUs

=== Simulation ===
CPU 0 runs ./traces/GemsFDTD_716B.trace.xz
Region of Interest Statistics

CPU 0 cumulative IPC: 0.7161 instructions: 25000000 cycles: 34910845
CPU 0 Branch Prediction Accuracy: 99.45% MPKI: 0.03192 Average ROB Occupancy at Mispredict: 350.2
Branch type MPKI
BRANCH_DIRECT_JUMP: 0
BRANCH_INDIRECT: 0
BRANCH_CONDITIONAL: 0.0319
BRANCH_DIRECT_CALL: 0
BRANCH_INDIRECT_CALL: 0
BRANCH_RETURN: 0

LLC TOTAL        ACCESS:     634056 HIT:     228523 MISS:     405533
LLC LOAD         ACCESS:     534201 HIT:     177977 MISS:     356224
LLC RFO          ACCESS:          0 HIT:          0 MISS:          0
LLC PREFETCH     ACCESS:          0 HIT:          0 MISS:          0
LLC WRITE        ACCESS:      48170 HIT:      44638 MISS:       3532
LLC TRANSLATION  ACCESS:      51685 HIT:       5908 MISS:      45777
LLC PREFETCH REQUESTED:          0 ISSUED:          0 USEFUL:          0 USELESS:          0
LLC AVERAGE MISS LATENCY: 512.2 cycles
cpu0_DTLB TOTAL        ACCESS:    6631437 HIT:    5912269 MISS:     719168
cpu0_DTLB LOAD         ACCESS:    6631437 HIT:    5912269 MISS:     719168
cpu0_DTLB RFO          ACCESS:          0 HIT:          0 MISS:          0
cpu0_DTLB PREFETCH     ACCESS:          0 HIT:          0 MISS:          0
cpu0_DTLB WRITE        ACCESS:          0 HIT:          0 MISS:          0
cpu0_DTLB TRANSLATION  ACCESS:          0 HIT:          0 MISS:          0
cpu0_DTLB PREFETCH REQUESTED:          0 ISSUED:          0 USEFUL:          0 USELESS:          0
cpu0_DTLB AVERAGE MISS LATENCY: 46.61 cycles
cpu0_ITLB TOTAL        ACCESS:        141 HIT:        133 MISS:          8
cpu0_ITLB LOAD         ACCESS:        141 HIT:        133 MISS:          8
cpu0_ITLB RFO          ACCESS:          0 HIT:          0 MISS:          0
cpu0_ITLB PREFETCH     ACCESS:          0 HIT:          0 MISS:          0
cpu0_ITLB WRITE        ACCESS:          0 HIT:          0 MISS:          0
cpu0_ITLB TRANSLATION  ACCESS:          0 HIT:          0 MISS:          0
cpu0_ITLB PREFETCH REQUESTED:          0 ISSUED:          0 USEFUL:          0 USELESS:          0
cpu0_ITLB AVERAGE MISS LATENCY: 147.1 cycles
cpu0_L1D TOTAL        ACCESS:    8487456 HIT:    6359977 MISS:    2127479
cpu0_L1D LOAD         ACCESS:    5506203 HIT:    3488386 MISS:    2017817
cpu0_L1D RFO          ACCESS:          0 HIT:          0 MISS:          0
cpu0_L1D PREFETCH     ACCESS:          0 HIT:          0 MISS:          0
cpu0_L1D WRITE        ACCESS:    2887441 HIT:    2865064 MISS:      22377
cpu0_L1D TRANSLATION  ACCESS:      93812 HIT:       6527 MISS:      87285
cpu0_L1D PREFETCH REQUESTED:          0 ISSUED:          0 USEFUL:          0 USELESS:          0
cpu0_L1D AVERAGE MISS LATENCY: 113.5 cycles
cpu0_L1I TOTAL        ACCESS:        177 HIT:         82 MISS:         95
cpu0_L1I LOAD         ACCESS:        177 HIT:         82 MISS:         95
cpu0_L1I RFO          ACCESS:          0 HIT:          0 MISS:          0
cpu0_L1I PREFETCH     ACCESS:          0 HIT:          0 MISS:          0
cpu0_L1I WRITE        ACCESS:          0 HIT:          0 MISS:          0
cpu0_L1I TRANSLATION  ACCESS:          0 HIT:          0 MISS:          0
cpu0_L1I PREFETCH REQUESTED:          0 ISSUED:          0 USEFUL:          0 USELESS:          0
cpu0_L1I AVERAGE MISS LATENCY: 283.5 cycles
cpu0_L2C TOTAL        ACCESS:    2411633 HIT:    1825730 MISS:     585903
cpu0_L2C LOAD         ACCESS:    2005031 HIT:    1470816 MISS:     534215
cpu0_L2C RFO          ACCESS:      18190 HIT:      18190 MISS:          0
cpu0_L2C PREFETCH     ACCESS:          0 HIT:          0 MISS:          0
cpu0_L2C WRITE        ACCESS:     301586 HIT:     301583 MISS:          3
cpu0_L2C TRANSLATION  ACCESS:      86826 HIT:      35141 MISS:      51685
cpu0_L2C PREFETCH REQUESTED:          0 ISSUED:          0 USEFUL:          0 USELESS:          0
cpu0_L2C AVERAGE MISS LATENCY: 375.2 cycles
cpu0_STLB TOTAL        ACCESS:     703127 HIT:     634751 MISS:      68376
cpu0_STLB LOAD         ACCESS:     703127 HIT:     634751 MISS:      68376
cpu0_STLB RFO          ACCESS:          0 HIT:          0 MISS:          0
cpu0_STLB PREFETCH     ACCESS:          0 HIT:          0 MISS:          0
cpu0_STLB WRITE        ACCESS:          0 HIT:          0 MISS:          0
cpu0_STLB TRANSLATION  ACCESS:          0 HIT:          0 MISS:          0
cpu0_STLB PREFETCH REQUESTED:          0 ISSUED:          0 USEFUL:          0 USELESS:          0
cpu0_STLB AVERAGE MISS LATENCY: 438.8 cycles

DRAM Statistics

Channel 0 RQ ROW_BUFFER_HIT:     141495
  ROW_BUFFER_MISS:     260388
 AVG DBUS CONGESTED CYCLE: 3.806
WQ ROW_BUFFER_HIT: Channel 0 
  ROW_BUFFER_MISS:        542
  FULL:       3535
