WARNING: physical memory size is smaller than virtual memory size.

*** ChampSim Multicore Out-of-Order Simulator ***
Warmup Instructions: 25000000
Simulation Instructions: 25000000
Number of CPUs: 1
Page size: 4096

Off-chip DRAM Size: 4 GiB Channels: 1 Width: 64-bit Data Race: 800 MT/s
Heartbeat CPU 0 instructions: 10000000 cycles: 2500632 heartbeat IPC: 3.999 cumulative IPC: 3.999 (Simulation time: 00 hr 01 min 00 sec)
Heartbeat CPU 0 instructions: 20000000 cycles: 5000632 heartbeat IPC: 4 cumulative IPC: 3.999 (Simulation time: 00 hr 02 min 01 sec)
Warmup finished CPU 0 instructions: 25000002 cycles: 6251047 cumulative IPC: 3.999 (Simulation time: 00 hr 02 min 30 sec)
Warmup complete CPU 0 instructions: 25000002 cycles: 6251047 cumulative IPC: 3.999 (Simulation time: 00 hr 02 min 30 sec)
Heartbeat CPU 0 instructions: 30000001 cycles: 8688865 heartbeat IPC: 2.711 cumulative IPC: 2.051 (Simulation time: 00 hr 03 min 25 sec)
Heartbeat CPU 0 instructions: 40000002 cycles: 12968733 heartbeat IPC: 2.337 cumulative IPC: 2.233 (Simulation time: 00 hr 04 min 58 sec)
Heartbeat CPU 0 instructions: 50000002 cycles: 16986734 heartbeat IPC: 2.489 cumulative IPC: 2.329 (Simulation time: 00 hr 06 min 23 sec)
Simulation finished CPU 0 instructions: 25000000 cycles: 10735688 cumulative IPC: 2.329 (Simulation time: 00 hr 06 min 23 sec)
Simulation complete CPU 0 instructions: 25000000 cycles: 10735688 cumulative IPC: 2.329 (Simulation time: 00 hr 06 min 23 sec)

ChampSim completed all CPUs

=== Simulation ===
CPU 0 runs ./traces/hmmer_7B.trace.xz
Region of Interest Statistics

CPU 0 cumulative IPC: 2.329 instructions: 25000000 cycles: 10735688
CPU 0 Branch Prediction Accuracy: 99.03% MPKI: 0.3745 Average ROB Occupancy at Mispredict: 214.3
Branch type MPKI
BRANCH_DIRECT_JUMP: 0.00052
BRANCH_INDIRECT: 0.00224
BRANCH_CONDITIONAL: 0.37
BRANCH_DIRECT_CALL: 0.00036
BRANCH_INDIRECT_CALL: 8e-05
BRANCH_RETURN: 0.00108

LLC TOTAL        ACCESS:     152953 HIT:      75335 MISS:      77618
LLC LOAD         ACCESS:       2439 HIT:       1252 MISS:       1187
LLC RFO          ACCESS:      71928 HIT:      28764 MISS:      43164
LLC PREFETCH     ACCESS:       6913 HIT:       1980 MISS:       4933
LLC WRITE        ACCESS:      71661 HIT:      43338 MISS:      28323
LLC TRANSLATION  ACCESS:         12 HIT:          1 MISS:         11
LLC PREFETCH REQUESTED:          0 ISSUED:          0 USEFUL:          0 USELESS:          0
LLC AVERAGE MISS LATENCY: 1165 cycles
cpu0_DTLB TOTAL        ACCESS:    5949682 HIT:    5943382 MISS:       6300
cpu0_DTLB LOAD         ACCESS:    5949682 HIT:    5943382 MISS:       6300
cpu0_DTLB RFO          ACCESS:          0 HIT:          0 MISS:          0
cpu0_DTLB PREFETCH     ACCESS:          0 HIT:          0 MISS:          0
cpu0_DTLB WRITE        ACCESS:          0 HIT:          0 MISS:          0
cpu0_DTLB TRANSLATION  ACCESS:          0 HIT:          0 MISS:          0
cpu0_DTLB PREFETCH REQUESTED:          0 ISSUED:          0 USEFUL:          0 USELESS:          0
cpu0_DTLB AVERAGE MISS LATENCY: 4.763 cycles
cpu0_ITLB TOTAL        ACCESS:       3190 HIT:       3106 MISS:         84
cpu0_ITLB LOAD         ACCESS:       3190 HIT:       3106 MISS:         84
cpu0_ITLB RFO          ACCESS:          0 HIT:          0 MISS:          0
cpu0_ITLB PREFETCH     ACCESS:          0 HIT:          0 MISS:          0
cpu0_ITLB WRITE        ACCESS:          0 HIT:          0 MISS:          0
cpu0_ITLB TRANSLATION  ACCESS:          0 HIT:          0 MISS:          0
cpu0_ITLB PREFETCH REQUESTED:          0 ISSUED:          0 USEFUL:          0 USELESS:          0
cpu0_ITLB AVERAGE MISS LATENCY: 23.38 cycles
cpu0_L1D TOTAL        ACCESS:    8745592 HIT:    6379628 MISS:    2365964
cpu0_L1D LOAD         ACCESS:    4645607 HIT:    4563791 MISS:      81816
cpu0_L1D RFO          ACCESS:          0 HIT:          0 MISS:          0
cpu0_L1D PREFETCH     ACCESS:     324504 HIT:     292442 MISS:      32062
cpu0_L1D WRITE        ACCESS:    3775462 HIT:    1523395 MISS:    2252067
cpu0_L1D TRANSLATION  ACCESS:         19 HIT:          0 MISS:         19
cpu0_L1D PREFETCH REQUESTED:    5346772 ISSUED:     324500 USEFUL:       6736 USELESS:       3018
cpu0_L1D AVERAGE MISS LATENCY: 29.75 cycles
cpu0_L1I TOTAL        ACCESS:       3567 HIT:       3421 MISS:        146
cpu0_L1I LOAD         ACCESS:       3567 HIT:       3421 MISS:        146
cpu0_L1I RFO          ACCESS:          0 HIT:          0 MISS:          0
cpu0_L1I PREFETCH     ACCESS:          0 HIT:          0 MISS:          0
cpu0_L1I WRITE        ACCESS:          0 HIT:          0 MISS:          0
cpu0_L1I TRANSLATION  ACCESS:          0 HIT:          0 MISS:          0
cpu0_L1I PREFETCH REQUESTED:          0 ISSUED:          0 USEFUL:          0 USELESS:          0
cpu0_L1I AVERAGE MISS LATENCY: 211.9 cycles
cpu0_L2C TOTAL        ACCESS:     334879 HIT:     251426 MISS:      83453
cpu0_L2C LOAD         ACCESS:      59805 HIT:      56938 MISS:       2867
cpu0_L2C RFO          ACCESS:      75579 HIT:       3651 MISS:      71928
cpu0_L2C PREFETCH     ACCESS:     124103 HIT:     115469 MISS:       8634
cpu0_L2C WRITE        ACCESS:      75373 HIT:      75361 MISS:         12
cpu0_L2C TRANSLATION  ACCESS:         19 HIT:          7 MISS:         12
cpu0_L2C PREFETCH REQUESTED:     114348 ISSUED:     114348 USEFUL:       3620 USELESS:        228
cpu0_L2C AVERAGE MISS LATENCY: 1098 cycles
cpu0_STLB TOTAL        ACCESS:       3575 HIT:       3556 MISS:         19
cpu0_STLB LOAD         ACCESS:       3575 HIT:       3556 MISS:         19
cpu0_STLB RFO          ACCESS:          0 HIT:          0 MISS:          0
cpu0_STLB PREFETCH     ACCESS:          0 HIT:          0 MISS:          0
cpu0_STLB WRITE        ACCESS:          0 HIT:          0 MISS:          0
cpu0_STLB TRANSLATION  ACCESS:          0 HIT:          0 MISS:          0
cpu0_STLB PREFETCH REQUESTED:          0 ISSUED:          0 USEFUL:          0 USELESS:          0
cpu0_STLB AVERAGE MISS LATENCY: 843.4 cycles

DRAM Statistics

Channel 0 RQ ROW_BUFFER_HIT:      21811
  ROW_BUFFER_MISS:      27440
 AVG DBUS CONGESTED CYCLE: 3.948
WQ ROW_BUFFER_HIT: Channel 0 
  ROW_BUFFER_MISS:       7499
  FULL:      36394
