WARNING: physical memory size is smaller than virtual memory size.

*** ChampSim Multicore Out-of-Order Simulator ***
Warmup Instructions: 25000000
Simulation Instructions: 25000000
Number of CPUs: 1
Page size: 4096

Off-chip DRAM Size: 4 GiB Channels: 1 Width: 64-bit Data Race: 800 MT/s
Heartbeat CPU 0 instructions: 10000000 cycles: 2500112 heartbeat IPC: 4 cumulative IPC: 4 (Simulation time: 00 hr 00 min 39 sec)
Heartbeat CPU 0 instructions: 20000002 cycles: 5001242 heartbeat IPC: 3.998 cumulative IPC: 3.999 (Simulation time: 00 hr 01 min 19 sec)
Warmup finished CPU 0 instructions: 25000000 cycles: 6251527 cumulative IPC: 3.999 (Simulation time: 00 hr 01 min 39 sec)
Warmup complete CPU 0 instructions: 25000000 cycles: 6251527 cumulative IPC: 3.999 (Simulation time: 00 hr 01 min 39 sec)
Heartbeat CPU 0 instructions: 30000002 cycles: 8844722 heartbeat IPC: 2.602 cumulative IPC: 1.928 (Simulation time: 00 hr 02 min 14 sec)
Heartbeat CPU 0 instructions: 40000001 cycles: 14761869 heartbeat IPC: 1.69 cumulative IPC: 1.763 (Simulation time: 00 hr 03 min 30 sec)
Heartbeat CPU 0 instructions: 50000003 cycles: 19905928 heartbeat IPC: 1.944 cumulative IPC: 1.831 (Simulation time: 00 hr 04 min 41 sec)
Simulation finished CPU 0 instructions: 25000003 cycles: 13654402 cumulative IPC: 1.831 (Simulation time: 00 hr 04 min 41 sec)
Simulation complete CPU 0 instructions: 25000003 cycles: 13654402 cumulative IPC: 1.831 (Simulation time: 00 hr 04 min 41 sec)

ChampSim completed all CPUs

=== Simulation ===
CPU 0 runs ./traces/hmmer_397B.trace.xz
Region of Interest Statistics

CPU 0 cumulative IPC: 1.831 instructions: 25000003 cycles: 13654402
CPU 0 Branch Prediction Accuracy: 99.17% MPKI: 0.3152 Average ROB Occupancy at Mispredict: 239.5
Branch type MPKI
BRANCH_DIRECT_JUMP: 8e-05
BRANCH_INDIRECT: 0.0002
BRANCH_CONDITIONAL: 0.315
BRANCH_DIRECT_CALL: 0
BRANCH_INDIRECT_CALL: 0
BRANCH_RETURN: 0.00012

LLC TOTAL        ACCESS:     157637 HIT:      78863 MISS:      78774
LLC LOAD         ACCESS:       6192 HIT:       4660 MISS:       1532
LLC RFO          ACCESS:      76978 HIT:      20886 MISS:      56092
LLC PREFETCH     ACCESS:          0 HIT:          0 MISS:          0
LLC WRITE        ACCESS:      74459 HIT:      53313 MISS:      21146
LLC TRANSLATION  ACCESS:          8 HIT:          4 MISS:          4
LLC PREFETCH REQUESTED:          0 ISSUED:          0 USEFUL:          0 USELESS:          0
LLC AVERAGE MISS LATENCY: 1859 cycles
cpu0_DTLB TOTAL        ACCESS:    5699389 HIT:    5695513 MISS:       3876
cpu0_DTLB LOAD         ACCESS:    5699389 HIT:    5695513 MISS:       3876
cpu0_DTLB RFO          ACCESS:          0 HIT:          0 MISS:          0
cpu0_DTLB PREFETCH     ACCESS:          0 HIT:          0 MISS:          0
cpu0_DTLB WRITE        ACCESS:          0 HIT:          0 MISS:          0
cpu0_DTLB TRANSLATION  ACCESS:          0 HIT:          0 MISS:          0
cpu0_DTLB PREFETCH REQUESTED:          0 ISSUED:          0 USEFUL:          0 USELESS:          0
cpu0_DTLB AVERAGE MISS LATENCY: 13.63 cycles
cpu0_ITLB TOTAL        ACCESS:        657 HIT:        643 MISS:         14
cpu0_ITLB LOAD         ACCESS:        657 HIT:        643 MISS:         14
cpu0_ITLB RFO          ACCESS:          0 HIT:          0 MISS:          0
cpu0_ITLB PREFETCH     ACCESS:          0 HIT:          0 MISS:          0
cpu0_ITLB WRITE        ACCESS:          0 HIT:          0 MISS:          0
cpu0_ITLB TRANSLATION  ACCESS:          0 HIT:          0 MISS:          0
cpu0_ITLB PREFETCH REQUESTED:          0 ISSUED:          0 USEFUL:          0 USELESS:          0
cpu0_ITLB AVERAGE MISS LATENCY: 1.214 cycles
cpu0_L1D TOTAL        ACCESS:    8013064 HIT:    5349960 MISS:    2663104
cpu0_L1D LOAD         ACCESS:    4420512 HIT:    4345051 MISS:      75461
cpu0_L1D RFO          ACCESS:          0 HIT:          0 MISS:          0
cpu0_L1D PREFETCH     ACCESS:          0 HIT:          0 MISS:          0
cpu0_L1D WRITE        ACCESS:    3592297 HIT:    1004853 MISS:    2587444
cpu0_L1D TRANSLATION  ACCESS:        255 HIT:         56 MISS:        199
cpu0_L1D PREFETCH REQUESTED:          0 ISSUED:          0 USEFUL:          0 USELESS:          0
cpu0_L1D AVERAGE MISS LATENCY: 45.72 cycles
cpu0_L1I TOTAL        ACCESS:        737 HIT:        711 MISS:         26
cpu0_L1I LOAD         ACCESS:        737 HIT:        711 MISS:         26
cpu0_L1I RFO          ACCESS:          0 HIT:          0 MISS:          0
cpu0_L1I PREFETCH     ACCESS:          0 HIT:          0 MISS:          0
cpu0_L1I WRITE        ACCESS:          0 HIT:          0 MISS:          0
cpu0_L1I TRANSLATION  ACCESS:          0 HIT:          0 MISS:          0
cpu0_L1I PREFETCH REQUESTED:          0 ISSUED:          0 USEFUL:          0 USELESS:          0
cpu0_L1I AVERAGE MISS LATENCY: 206.7 cycles
cpu0_L2C TOTAL        ACCESS:     204680 HIT:     121498 MISS:      83182
cpu0_L2C LOAD         ACCESS:      52645 HIT:      46453 MISS:       6192
cpu0_L2C RFO          ACCESS:      76998 HIT:         20 MISS:      76978
cpu0_L2C PREFETCH     ACCESS:          0 HIT:          0 MISS:          0
cpu0_L2C WRITE        ACCESS:      74838 HIT:      74834 MISS:          4
cpu0_L2C TRANSLATION  ACCESS:        199 HIT:        191 MISS:          8
cpu0_L2C PREFETCH REQUESTED:          0 ISSUED:          0 USEFUL:          0 USELESS:          0
cpu0_L2C AVERAGE MISS LATENCY: 1781 cycles
cpu0_STLB TOTAL        ACCESS:       1660 HIT:       1405 MISS:        255
cpu0_STLB LOAD         ACCESS:       1660 HIT:       1405 MISS:        255
cpu0_STLB RFO          ACCESS:          0 HIT:          0 MISS:          0
cpu0_STLB PREFETCH     ACCESS:          0 HIT:          0 MISS:          0
cpu0_STLB WRITE        ACCESS:          0 HIT:          0 MISS:          0
cpu0_STLB TRANSLATION  ACCESS:          0 HIT:          0 MISS:          0
cpu0_STLB PREFETCH REQUESTED:          0 ISSUED:          0 USEFUL:          0 USELESS:          0
cpu0_STLB AVERAGE MISS LATENCY: 286.5 cycles

DRAM Statistics

Channel 0 RQ ROW_BUFFER_HIT:      31347
  ROW_BUFFER_MISS:      26277
 AVG DBUS CONGESTED CYCLE: 3.951
WQ ROW_BUFFER_HIT: Channel 0 
  ROW_BUFFER_MISS:       8668
  FULL:      44855
