WARNING: physical memory size is smaller than virtual memory size.

*** ChampSim Multicore Out-of-Order Simulator ***
Warmup Instructions: 25000000
Simulation Instructions: 25000000
Number of CPUs: 1
Page size: 4096

Off-chip DRAM Size: 4 GiB Channels: 1 Width: 64-bit Data Race: 800 MT/s
Heartbeat CPU 0 instructions: 10000000 cycles: 2500619 heartbeat IPC: 3.999 cumulative IPC: 3.999 (Simulation time: 00 hr 00 min 38 sec)
Heartbeat CPU 0 instructions: 20000000 cycles: 5000619 heartbeat IPC: 4 cumulative IPC: 4 (Simulation time: 00 hr 01 min 18 sec)
Warmup finished CPU 0 instructions: 25000003 cycles: 6251030 cumulative IPC: 3.999 (Simulation time: 00 hr 01 min 38 sec)
Warmup complete CPU 0 instructions: 25000003 cycles: 6251030 cumulative IPC: 3.999 (Simulation time: 00 hr 01 min 38 sec)
Heartbeat CPU 0 instructions: 30000003 cycles: 9030535 heartbeat IPC: 2.481 cumulative IPC: 1.799 (Simulation time: 00 hr 02 min 14 sec)
Heartbeat CPU 0 instructions: 40000001 cycles: 12894678 heartbeat IPC: 2.588 cumulative IPC: 2.258 (Simulation time: 00 hr 03 min 15 sec)
Heartbeat CPU 0 instructions: 50000003 cycles: 16821259 heartbeat IPC: 2.547 cumulative IPC: 2.365 (Simulation time: 00 hr 04 min 16 sec)
Simulation finished CPU 0 instructions: 25000000 cycles: 10570230 cumulative IPC: 2.365 (Simulation time: 00 hr 04 min 16 sec)
Simulation complete CPU 0 instructions: 25000000 cycles: 10570230 cumulative IPC: 2.365 (Simulation time: 00 hr 04 min 16 sec)

ChampSim completed all CPUs

=== Simulation ===
CPU 0 runs ./traces/hmmer_7B.trace.xz
Region of Interest Statistics

CPU 0 cumulative IPC: 2.365 instructions: 25000000 cycles: 10570230
CPU 0 Branch Prediction Accuracy: 99.03% MPKI: 0.3745 Average ROB Occupancy at Mispredict: 212.4
Branch type MPKI
BRANCH_DIRECT_JUMP: 0.00052
BRANCH_INDIRECT: 0.00224
BRANCH_CONDITIONAL: 0.37
BRANCH_DIRECT_CALL: 0.00036
BRANCH_INDIRECT_CALL: 8e-05
BRANCH_RETURN: 0.00108

LLC TOTAL        ACCESS:     152150 HIT:      83705 MISS:      68445
LLC LOAD         ACCESS:       7265 HIT:       6273 MISS:        992
LLC RFO          ACCESS:      73449 HIT:      31511 MISS:      41938
LLC PREFETCH     ACCESS:          0 HIT:          0 MISS:          0
LLC WRITE        ACCESS:      71423 HIT:      45921 MISS:      25502
LLC TRANSLATION  ACCESS:         13 HIT:          0 MISS:         13
LLC PREFETCH REQUESTED:          0 ISSUED:          0 USEFUL:          0 USELESS:          0
LLC AVERAGE MISS LATENCY: 1301 cycles
cpu0_DTLB TOTAL        ACCESS:    5942102 HIT:    5935793 MISS:       6309
cpu0_DTLB LOAD         ACCESS:    5942102 HIT:    5935793 MISS:       6309
cpu0_DTLB RFO          ACCESS:          0 HIT:          0 MISS:          0
cpu0_DTLB PREFETCH     ACCESS:          0 HIT:          0 MISS:          0
cpu0_DTLB WRITE        ACCESS:          0 HIT:          0 MISS:          0
cpu0_DTLB TRANSLATION  ACCESS:          0 HIT:          0 MISS:          0
cpu0_DTLB PREFETCH REQUESTED:          0 ISSUED:          0 USEFUL:          0 USELESS:          0
cpu0_DTLB AVERAGE MISS LATENCY: 4.655 cycles
cpu0_ITLB TOTAL        ACCESS:       3191 HIT:       3107 MISS:         84
cpu0_ITLB LOAD         ACCESS:       3191 HIT:       3107 MISS:         84
cpu0_ITLB RFO          ACCESS:          0 HIT:          0 MISS:          0
cpu0_ITLB PREFETCH     ACCESS:          0 HIT:          0 MISS:          0
cpu0_ITLB WRITE        ACCESS:          0 HIT:          0 MISS:          0
cpu0_ITLB TRANSLATION  ACCESS:          0 HIT:          0 MISS:          0
cpu0_ITLB PREFETCH REQUESTED:          0 ISSUED:          0 USEFUL:          0 USELESS:          0
cpu0_ITLB AVERAGE MISS LATENCY: 22.48 cycles
cpu0_L1D TOTAL        ACCESS:    8413730 HIT:    6120783 MISS:    2292947
cpu0_L1D LOAD         ACCESS:    4640057 HIT:    4556626 MISS:      83431
cpu0_L1D RFO          ACCESS:          0 HIT:          0 MISS:          0
cpu0_L1D PREFETCH     ACCESS:          0 HIT:          0 MISS:          0
cpu0_L1D WRITE        ACCESS:    3773654 HIT:    1564156 MISS:    2209498
cpu0_L1D TRANSLATION  ACCESS:         19 HIT:          1 MISS:         18
cpu0_L1D PREFETCH REQUESTED:          0 ISSUED:          0 USEFUL:          0 USELESS:          0
cpu0_L1D AVERAGE MISS LATENCY: 31.89 cycles
cpu0_L1I TOTAL        ACCESS:       3568 HIT:       3422 MISS:        146
cpu0_L1I LOAD         ACCESS:       3568 HIT:       3422 MISS:        146
cpu0_L1I RFO          ACCESS:          0 HIT:          0 MISS:          0
cpu0_L1I PREFETCH     ACCESS:          0 HIT:          0 MISS:          0
cpu0_L1I WRITE        ACCESS:          0 HIT:          0 MISS:          0
cpu0_L1I TRANSLATION  ACCESS:          0 HIT:          0 MISS:          0
cpu0_L1I PREFETCH REQUESTED:          0 ISSUED:          0 USEFUL:          0 USELESS:          0
cpu0_L1I AVERAGE MISS LATENCY: 180 cycles
cpu0_L2C TOTAL        ACCESS:     213791 HIT:     133046 MISS:      80745
cpu0_L2C LOAD         ACCESS:      61034 HIT:      53769 MISS:       7265
cpu0_L2C RFO          ACCESS:      77385 HIT:       3936 MISS:      73449
cpu0_L2C PREFETCH     ACCESS:          0 HIT:          0 MISS:          0
cpu0_L2C WRITE        ACCESS:      75354 HIT:      75336 MISS:         18
cpu0_L2C TRANSLATION  ACCESS:         18 HIT:          5 MISS:         13
cpu0_L2C PREFETCH REQUESTED:          0 ISSUED:          0 USEFUL:          0 USELESS:          0
cpu0_L2C AVERAGE MISS LATENCY: 1123 cycles
cpu0_STLB TOTAL        ACCESS:       3631 HIT:       3612 MISS:         19
cpu0_STLB LOAD         ACCESS:       3631 HIT:       3612 MISS:         19
cpu0_STLB RFO          ACCESS:          0 HIT:          0 MISS:          0
cpu0_STLB PREFETCH     ACCESS:          0 HIT:          0 MISS:          0
cpu0_STLB WRITE        ACCESS:          0 HIT:          0 MISS:          0
cpu0_STLB TRANSLATION  ACCESS:          0 HIT:          0 MISS:          0
cpu0_STLB PREFETCH REQUESTED:          0 ISSUED:          0 USEFUL:          0 USELESS:          0
cpu0_STLB AVERAGE MISS LATENCY: 869.2 cycles

DRAM Statistics

Channel 0 RQ ROW_BUFFER_HIT:      19722
  ROW_BUFFER_MISS:      23216
 AVG DBUS CONGESTED CYCLE: 3.952
WQ ROW_BUFFER_HIT: Channel 0 
  ROW_BUFFER_MISS:       6631
  FULL:      35027
