WARNING: physical memory size is smaller than virtual memory size.

*** ChampSim Multicore Out-of-Order Simulator ***
Warmup Instructions: 25000000
Simulation Instructions: 25000000
Number of CPUs: 1
Page size: 4096

Off-chip DRAM Size: 4 GiB Channels: 1 Width: 64-bit Data Race: 800 MT/s
Heartbeat CPU 0 instructions: 10000002 cycles: 2511581 heartbeat IPC: 3.982 cumulative IPC: 3.982 (Simulation time: 00 hr 00 min 35 sec)
Heartbeat CPU 0 instructions: 20000000 cycles: 5023080 heartbeat IPC: 3.982 cumulative IPC: 3.982 (Simulation time: 00 hr 01 min 12 sec)
Warmup finished CPU 0 instructions: 25000000 cycles: 6663995 cumulative IPC: 3.752 (Simulation time: 00 hr 01 min 37 sec)
Warmup complete CPU 0 instructions: 25000000 cycles: 6663995 cumulative IPC: 3.752 (Simulation time: 00 hr 01 min 37 sec)
Heartbeat CPU 0 instructions: 30000001 cycles: 28183273 heartbeat IPC: 0.4318 cumulative IPC: 0.2323 (Simulation time: 00 hr 04 min 28 sec)
Heartbeat CPU 0 instructions: 40000001 cycles: 72545518 heartbeat IPC: 0.2254 cumulative IPC: 0.2277 (Simulation time: 00 hr 10 min 22 sec)
Heartbeat CPU 0 instructions: 50000000 cycles: 115185308 heartbeat IPC: 0.2345 cumulative IPC: 0.2304 (Simulation time: 00 hr 15 min 54 sec)
Simulation finished CPU 0 instructions: 25000000 cycles: 108521314 cumulative IPC: 0.2304 (Simulation time: 00 hr 15 min 54 sec)
Simulation complete CPU 0 instructions: 25000000 cycles: 108521314 cumulative IPC: 0.2304 (Simulation time: 00 hr 15 min 54 sec)

ChampSim completed all CPUs

=== Simulation ===
CPU 0 runs ./traces/lbm_564B.trace.xz
Region of Interest Statistics

CPU 0 cumulative IPC: 0.2304 instructions: 25000000 cycles: 108521314
CPU 0 Branch Prediction Accuracy: 99.23% MPKI: 0.094 Average ROB Occupancy at Mispredict: 254.1
Branch type MPKI
BRANCH_DIRECT_JUMP: 0
BRANCH_INDIRECT: 0
BRANCH_CONDITIONAL: 0.094
BRANCH_DIRECT_CALL: 0
BRANCH_INDIRECT_CALL: 0
BRANCH_RETURN: 0

LLC TOTAL        ACCESS:    1385009 HIT:     385146 MISS:     999863
LLC LOAD         ACCESS:     190833 HIT:         16 MISS:     190817
LLC RFO          ACCESS:     596421 HIT:      57293 MISS:     539128
LLC PREFETCH     ACCESS:          0 HIT:          0 MISS:          0
LLC WRITE        ACCESS:     597026 HIT:     327247 MISS:     269779
LLC TRANSLATION  ACCESS:        729 HIT:        590 MISS:        139
LLC PREFETCH REQUESTED:          0 ISSUED:          0 USEFUL:          0 USELESS:          0
LLC AVERAGE MISS LATENCY: 1293 cycles
cpu0_DTLB TOTAL        ACCESS:    4221967 HIT:    4206122 MISS:      15845
cpu0_DTLB LOAD         ACCESS:    4221967 HIT:    4206122 MISS:      15845
cpu0_DTLB RFO          ACCESS:          0 HIT:          0 MISS:          0
cpu0_DTLB PREFETCH     ACCESS:          0 HIT:          0 MISS:          0
cpu0_DTLB WRITE        ACCESS:          0 HIT:          0 MISS:          0
cpu0_DTLB TRANSLATION  ACCESS:          0 HIT:          0 MISS:          0
cpu0_DTLB PREFETCH REQUESTED:          0 ISSUED:          0 USEFUL:          0 USELESS:          0
cpu0_DTLB AVERAGE MISS LATENCY: 170.4 cycles
cpu0_ITLB TOTAL        ACCESS:          0 HIT:          0 MISS:          0
cpu0_ITLB LOAD         ACCESS:          0 HIT:          0 MISS:          0
cpu0_ITLB RFO          ACCESS:          0 HIT:          0 MISS:          0
cpu0_ITLB PREFETCH     ACCESS:          0 HIT:          0 MISS:          0
cpu0_ITLB WRITE        ACCESS:          0 HIT:          0 MISS:          0
cpu0_ITLB TRANSLATION  ACCESS:          0 HIT:          0 MISS:          0
cpu0_ITLB PREFETCH REQUESTED:          0 ISSUED:          0 USEFUL:          0 USELESS:          0
cpu0_ITLB AVERAGE MISS LATENCY: -nan cycles
cpu0_L1D TOTAL        ACCESS:    5155721 HIT:    2536648 MISS:    2619073
cpu0_L1D LOAD         ACCESS:    2529831 HIT:    1015497 MISS:    1514334
cpu0_L1D RFO          ACCESS:          0 HIT:          0 MISS:          0
cpu0_L1D PREFETCH     ACCESS:          0 HIT:          0 MISS:          0
cpu0_L1D WRITE        ACCESS:    2613943 HIT:    1520055 MISS:    1093888
cpu0_L1D TRANSLATION  ACCESS:      11947 HIT:       1096 MISS:      10851
cpu0_L1D PREFETCH REQUESTED:          0 ISSUED:          0 USEFUL:          0 USELESS:          0
cpu0_L1D AVERAGE MISS LATENCY: 455.8 cycles
cpu0_L1I TOTAL        ACCESS:          0 HIT:          0 MISS:          0
cpu0_L1I LOAD         ACCESS:          0 HIT:          0 MISS:          0
cpu0_L1I RFO          ACCESS:          0 HIT:          0 MISS:          0
cpu0_L1I PREFETCH     ACCESS:          0 HIT:          0 MISS:          0
cpu0_L1I WRITE        ACCESS:          0 HIT:          0 MISS:          0
cpu0_L1I TRANSLATION  ACCESS:          0 HIT:          0 MISS:          0
cpu0_L1I PREFETCH REQUESTED:          0 ISSUED:          0 USEFUL:          0 USELESS:          0
cpu0_L1I AVERAGE MISS LATENCY: -nan cycles
cpu0_L2C TOTAL        ACCESS:    2352715 HIT:    1564732 MISS:     787983
cpu0_L2C LOAD         ACCESS:     190883 HIT:         50 MISS:     190833
cpu0_L2C RFO          ACCESS:    1075454 HIT:     479033 MISS:     596421
cpu0_L2C PREFETCH     ACCESS:          0 HIT:          0 MISS:          0
cpu0_L2C WRITE        ACCESS:    1075527 HIT:    1075527 MISS:          0
cpu0_L2C TRANSLATION  ACCESS:      10851 HIT:      10122 MISS:        729
cpu0_L2C PREFETCH REQUESTED:          0 ISSUED:          0 USEFUL:          0 USELESS:          0
cpu0_L2C AVERAGE MISS LATENCY: 1662 cycles
cpu0_STLB TOTAL        ACCESS:      11936 HIT:          0 MISS:      11936
cpu0_STLB LOAD         ACCESS:      11936 HIT:          0 MISS:      11936
cpu0_STLB RFO          ACCESS:          0 HIT:          0 MISS:          0
cpu0_STLB PREFETCH     ACCESS:          0 HIT:          0 MISS:          0
cpu0_STLB WRITE        ACCESS:          0 HIT:          0 MISS:          0
cpu0_STLB TRANSLATION  ACCESS:          0 HIT:          0 MISS:          0
cpu0_STLB PREFETCH REQUESTED:          0 ISSUED:          0 USEFUL:          0 USELESS:          0
cpu0_STLB AVERAGE MISS LATENCY: 244.3 cycles

DRAM Statistics

Channel 0 RQ ROW_BUFFER_HIT:      63903
  ROW_BUFFER_MISS:     665945
 AVG DBUS CONGESTED CYCLE: 3.978
WQ ROW_BUFFER_HIT: Channel 0 
  ROW_BUFFER_MISS:      36108
  FULL:     515069
