WARNING: physical memory size is smaller than virtual memory size.

*** ChampSim Multicore Out-of-Order Simulator ***
Warmup Instructions: 25000000
Simulation Instructions: 25000000
Number of CPUs: 1
Page size: 4096

Off-chip DRAM Size: 4 GiB Channels: 1 Width: 64-bit Data Race: 800 MT/s
Heartbeat CPU 0 instructions: 10000001 cycles: 2507719 heartbeat IPC: 3.988 cumulative IPC: 3.988 (Simulation time: 00 hr 00 min 34 sec)
Heartbeat CPU 0 instructions: 20000003 cycles: 5019274 heartbeat IPC: 3.982 cumulative IPC: 3.985 (Simulation time: 00 hr 01 min 12 sec)
Warmup finished CPU 0 instructions: 25000001 cycles: 6276923 cumulative IPC: 3.983 (Simulation time: 00 hr 01 min 31 sec)
Warmup complete CPU 0 instructions: 25000001 cycles: 6276923 cumulative IPC: 3.983 (Simulation time: 00 hr 01 min 31 sec)
Heartbeat CPU 0 instructions: 30000002 cycles: 24631731 heartbeat IPC: 0.5099 cumulative IPC: 0.2724 (Simulation time: 00 hr 03 min 54 sec)
Heartbeat CPU 0 instructions: 40000002 cycles: 61240941 heartbeat IPC: 0.2732 cumulative IPC: 0.2729 (Simulation time: 00 hr 08 min 43 sec)
Heartbeat CPU 0 instructions: 50000000 cycles: 96188251 heartbeat IPC: 0.2861 cumulative IPC: 0.2781 (Simulation time: 00 hr 13 min 28 sec)
Simulation finished CPU 0 instructions: 25000003 cycles: 89911330 cumulative IPC: 0.2781 (Simulation time: 00 hr 13 min 28 sec)
Simulation complete CPU 0 instructions: 25000003 cycles: 89911330 cumulative IPC: 0.2781 (Simulation time: 00 hr 13 min 28 sec)

ChampSim completed all CPUs

=== Simulation ===
CPU 0 runs ./traces/lbm_1004B.trace.xz
Region of Interest Statistics

CPU 0 cumulative IPC: 0.2781 instructions: 25000003 cycles: 89911330
CPU 0 Branch Prediction Accuracy: 99.25% MPKI: 0.08728 Average ROB Occupancy at Mispredict: 257.1
Branch type MPKI
BRANCH_DIRECT_JUMP: 0
BRANCH_INDIRECT: 0
BRANCH_CONDITIONAL: 0.0873
BRANCH_DIRECT_CALL: 0
BRANCH_INDIRECT_CALL: 0
BRANCH_RETURN: 0

LLC TOTAL        ACCESS:    1297469 HIT:     240367 MISS:    1057102
LLC LOAD         ACCESS:     184780 HIT:         11 MISS:     184769
LLC RFO          ACCESS:     556311 HIT:      82089 MISS:     474222
LLC PREFETCH     ACCESS:          0 HIT:          0 MISS:          0
LLC WRITE        ACCESS:     556300 HIT:     158250 MISS:     398050
LLC TRANSLATION  ACCESS:         78 HIT:         17 MISS:         61
LLC PREFETCH REQUESTED:          0 ISSUED:          0 USEFUL:          0 USELESS:          0
LLC AVERAGE MISS LATENCY: 960.9 cycles
cpu0_DTLB TOTAL        ACCESS:    4150939 HIT:    4136211 MISS:      14728
cpu0_DTLB LOAD         ACCESS:    4150939 HIT:    4136211 MISS:      14728
cpu0_DTLB RFO          ACCESS:          0 HIT:          0 MISS:          0
cpu0_DTLB PREFETCH     ACCESS:          0 HIT:          0 MISS:          0
cpu0_DTLB WRITE        ACCESS:          0 HIT:          0 MISS:          0
cpu0_DTLB TRANSLATION  ACCESS:          0 HIT:          0 MISS:          0
cpu0_DTLB PREFETCH REQUESTED:          0 ISSUED:          0 USEFUL:          0 USELESS:          0
cpu0_DTLB AVERAGE MISS LATENCY: 155.3 cycles
cpu0_ITLB TOTAL        ACCESS:          0 HIT:          0 MISS:          0
cpu0_ITLB LOAD         ACCESS:          0 HIT:          0 MISS:          0
cpu0_ITLB RFO          ACCESS:          0 HIT:          0 MISS:          0
cpu0_ITLB PREFETCH     ACCESS:          0 HIT:          0 MISS:          0
cpu0_ITLB WRITE        ACCESS:          0 HIT:          0 MISS:          0
cpu0_ITLB TRANSLATION  ACCESS:          0 HIT:          0 MISS:          0
cpu0_ITLB PREFETCH REQUESTED:          0 ISSUED:          0 USEFUL:          0 USELESS:          0
cpu0_ITLB AVERAGE MISS LATENCY: -nan cycles
cpu0_L1D TOTAL        ACCESS:    5079728 HIT:    2504306 MISS:    2575422
cpu0_L1D LOAD         ACCESS:    2527265 HIT:    1023986 MISS:    1503279
cpu0_L1D RFO          ACCESS:          0 HIT:          0 MISS:          0
cpu0_L1D PREFETCH     ACCESS:          0 HIT:          0 MISS:          0
cpu0_L1D WRITE        ACCESS:    2540898 HIT:    1479178 MISS:    1061720
cpu0_L1D TRANSLATION  ACCESS:      11565 HIT:       1142 MISS:      10423
cpu0_L1D PREFETCH REQUESTED:          0 ISSUED:          0 USEFUL:          0 USELESS:          0
cpu0_L1D AVERAGE MISS LATENCY: 364.2 cycles
cpu0_L1I TOTAL        ACCESS:          0 HIT:          0 MISS:          0
cpu0_L1I LOAD         ACCESS:          0 HIT:          0 MISS:          0
cpu0_L1I RFO          ACCESS:          0 HIT:          0 MISS:          0
cpu0_L1I PREFETCH     ACCESS:          0 HIT:          0 MISS:          0
cpu0_L1I WRITE        ACCESS:          0 HIT:          0 MISS:          0
cpu0_L1I TRANSLATION  ACCESS:          0 HIT:          0 MISS:          0
cpu0_L1I PREFETCH REQUESTED:          0 ISSUED:          0 USEFUL:          0 USELESS:          0
cpu0_L1I AVERAGE MISS LATENCY: -nan cycles
cpu0_L2C TOTAL        ACCESS:    2280463 HIT:    1539293 MISS:     741170
cpu0_L2C LOAD         ACCESS:     184781 HIT:          0 MISS:     184781
cpu0_L2C RFO          ACCESS:    1042622 HIT:     486311 MISS:     556311
cpu0_L2C PREFETCH     ACCESS:          0 HIT:          0 MISS:          0
cpu0_L2C WRITE        ACCESS:    1042637 HIT:    1042637 MISS:          0
cpu0_L2C TRANSLATION  ACCESS:      10423 HIT:      10345 MISS:         78
cpu0_L2C PREFETCH REQUESTED:          0 ISSUED:          0 USEFUL:          0 USELESS:          0
cpu0_L2C AVERAGE MISS LATENCY: 1391 cycles
cpu0_STLB TOTAL        ACCESS:      11554 HIT:          0 MISS:      11554
cpu0_STLB LOAD         ACCESS:      11554 HIT:          0 MISS:      11554
cpu0_STLB RFO          ACCESS:          0 HIT:          0 MISS:          0
cpu0_STLB PREFETCH     ACCESS:          0 HIT:          0 MISS:          0
cpu0_STLB WRITE        ACCESS:          0 HIT:          0 MISS:          0
cpu0_STLB TRANSLATION  ACCESS:          0 HIT:          0 MISS:          0
cpu0_STLB PREFETCH REQUESTED:          0 ISSUED:          0 USEFUL:          0 USELESS:          0
cpu0_STLB AVERAGE MISS LATENCY: 207.3 cycles

DRAM Statistics

Channel 0 RQ ROW_BUFFER_HIT:      71484
  ROW_BUFFER_MISS:     587558
 AVG DBUS CONGESTED CYCLE: 3.969
WQ ROW_BUFFER_HIT: Channel 0 
  ROW_BUFFER_MISS:      28143
  FULL:     445146
