WARNING: physical memory size is smaller than virtual memory size.

*** ChampSim Multicore Out-of-Order Simulator ***
Warmup Instructions: 25000000
Simulation Instructions: 25000000
Number of CPUs: 1
Page size: 4096

Off-chip DRAM Size: 4 GiB Channels: 1 Width: 64-bit Data Race: 800 MT/s
Heartbeat CPU 0 instructions: 10000002 cycles: 2609996 heartbeat IPC: 3.831 cumulative IPC: 3.831 (Simulation time: 00 hr 00 min 59 sec)
Heartbeat CPU 0 instructions: 20000000 cycles: 5187756 heartbeat IPC: 3.879 cumulative IPC: 3.855 (Simulation time: 00 hr 02 min 03 sec)
Warmup finished CPU 0 instructions: 25000000 cycles: 6483733 cumulative IPC: 3.856 (Simulation time: 00 hr 02 min 37 sec)
Warmup complete CPU 0 instructions: 25000000 cycles: 6483733 cumulative IPC: 3.856 (Simulation time: 00 hr 02 min 37 sec)
Heartbeat CPU 0 instructions: 30000003 cycles: 30625582 heartbeat IPC: 0.3931 cumulative IPC: 0.2071 (Simulation time: 00 hr 07 min 03 sec)
Heartbeat CPU 0 instructions: 40000001 cycles: 80706853 heartbeat IPC: 0.1997 cumulative IPC: 0.2021 (Simulation time: 00 hr 15 min 44 sec)
Heartbeat CPU 0 instructions: 50000001 cycles: 129254123 heartbeat IPC: 0.206 cumulative IPC: 0.2036 (Simulation time: 00 hr 24 min 05 sec)
Simulation finished CPU 0 instructions: 25000001 cycles: 122770391 cumulative IPC: 0.2036 (Simulation time: 00 hr 24 min 05 sec)
Simulation complete CPU 0 instructions: 25000001 cycles: 122770391 cumulative IPC: 0.2036 (Simulation time: 00 hr 24 min 05 sec)

ChampSim completed all CPUs

=== Simulation ===
CPU 0 runs ./traces/lbm_94B.trace.xz
Region of Interest Statistics

CPU 0 cumulative IPC: 0.2036 instructions: 25000001 cycles: 122770391
CPU 0 Branch Prediction Accuracy: 98.94% MPKI: 0.1259 Average ROB Occupancy at Mispredict: 266.9
Branch type MPKI
BRANCH_DIRECT_JUMP: 0
BRANCH_INDIRECT: 0
BRANCH_CONDITIONAL: 0.126
BRANCH_DIRECT_CALL: 0
BRANCH_INDIRECT_CALL: 0
BRANCH_RETURN: 0

LLC TOTAL        ACCESS:    1434597 HIT:     422802 MISS:    1011795
LLC LOAD         ACCESS:      97048 HIT:       2075 MISS:      94973
LLC RFO          ACCESS:     614600 HIT:      49211 MISS:     565389
LLC PREFETCH     ACCESS:     105794 HIT:       1357 MISS:     104437
LLC WRITE        ACCESS:     616289 HIT:     369416 MISS:     246873
LLC TRANSLATION  ACCESS:        866 HIT:        743 MISS:        123
LLC PREFETCH REQUESTED:          0 ISSUED:          0 USEFUL:          0 USELESS:          0
LLC AVERAGE MISS LATENCY: 1679 cycles
cpu0_DTLB TOTAL        ACCESS:    4118956 HIT:    4101969 MISS:      16987
cpu0_DTLB LOAD         ACCESS:    4118956 HIT:    4101969 MISS:      16987
cpu0_DTLB RFO          ACCESS:          0 HIT:          0 MISS:          0
cpu0_DTLB PREFETCH     ACCESS:          0 HIT:          0 MISS:          0
cpu0_DTLB WRITE        ACCESS:          0 HIT:          0 MISS:          0
cpu0_DTLB TRANSLATION  ACCESS:          0 HIT:          0 MISS:          0
cpu0_DTLB PREFETCH REQUESTED:          0 ISSUED:          0 USEFUL:          0 USELESS:          0
cpu0_DTLB AVERAGE MISS LATENCY: 230.9 cycles
cpu0_ITLB TOTAL        ACCESS:          0 HIT:          0 MISS:          0
cpu0_ITLB LOAD         ACCESS:          0 HIT:          0 MISS:          0
cpu0_ITLB RFO          ACCESS:          0 HIT:          0 MISS:          0
cpu0_ITLB PREFETCH     ACCESS:          0 HIT:          0 MISS:          0
cpu0_ITLB WRITE        ACCESS:          0 HIT:          0 MISS:          0
cpu0_ITLB TRANSLATION  ACCESS:          0 HIT:          0 MISS:          0
cpu0_ITLB PREFETCH REQUESTED:          0 ISSUED:          0 USEFUL:          0 USELESS:          0
cpu0_ITLB AVERAGE MISS LATENCY: -nan cycles
cpu0_L1D TOTAL        ACCESS:    7249182 HIT:    3972763 MISS:    3276419
cpu0_L1D LOAD         ACCESS:    2185601 HIT:    1413610 MISS:     771991
cpu0_L1D RFO          ACCESS:          0 HIT:          0 MISS:          0
cpu0_L1D PREFETCH     ACCESS:    2441138 HIT:    1072177 MISS:    1368961
cpu0_L1D WRITE        ACCESS:    2610202 HIT:    1485953 MISS:    1124249
cpu0_L1D TRANSLATION  ACCESS:      12241 HIT:       1023 MISS:      11218
cpu0_L1D PREFETCH REQUESTED:   10709468 ISSUED:    2441142 USEFUL:      74279 USELESS:       1871
cpu0_L1D AVERAGE MISS LATENCY: 437.4 cycles
cpu0_L1I TOTAL        ACCESS:          0 HIT:          0 MISS:          0
cpu0_L1I LOAD         ACCESS:          0 HIT:          0 MISS:          0
cpu0_L1I RFO          ACCESS:          0 HIT:          0 MISS:          0
cpu0_L1I PREFETCH     ACCESS:          0 HIT:          0 MISS:          0
cpu0_L1I WRITE        ACCESS:          0 HIT:          0 MISS:          0
cpu0_L1I TRANSLATION  ACCESS:          0 HIT:          0 MISS:          0
cpu0_L1I PREFETCH REQUESTED:          0 ISSUED:          0 USEFUL:          0 USELESS:          0
cpu0_L1I AVERAGE MISS LATENCY: -nan cycles
cpu0_L2C TOTAL        ACCESS:    2478399 HIT:    1659196 MISS:     819203
cpu0_L2C LOAD         ACCESS:     121377 HIT:      24181 MISS:      97196
cpu0_L2C RFO          ACCESS:    1101939 HIT:     487338 MISS:     614601
cpu0_L2C PREFETCH     ACCESS:     141922 HIT:      35382 MISS:     106540
cpu0_L2C WRITE        ACCESS:    1101943 HIT:    1101943 MISS:          0
cpu0_L2C TRANSLATION  ACCESS:      11218 HIT:      10352 MISS:        866
cpu0_L2C PREFETCH REQUESTED:      65772 ISSUED:      65772 USEFUL:      25421 USELESS:         36
cpu0_L2C AVERAGE MISS LATENCY: 2084 cycles
cpu0_STLB TOTAL        ACCESS:      12229 HIT:          0 MISS:      12229
cpu0_STLB LOAD         ACCESS:      12229 HIT:          0 MISS:      12229
cpu0_STLB RFO          ACCESS:          0 HIT:          0 MISS:          0
cpu0_STLB PREFETCH     ACCESS:          0 HIT:          0 MISS:          0
cpu0_STLB WRITE        ACCESS:          0 HIT:          0 MISS:          0
cpu0_STLB TRANSLATION  ACCESS:          0 HIT:          0 MISS:          0
cpu0_STLB PREFETCH REQUESTED:          0 ISSUED:          0 USEFUL:          0 USELESS:          0
cpu0_STLB AVERAGE MISS LATENCY: 347.6 cycles

DRAM Statistics

Channel 0 RQ ROW_BUFFER_HIT:      57156
  ROW_BUFFER_MISS:     705374
 AVG DBUS CONGESTED CYCLE: 3.983
WQ ROW_BUFFER_HIT: Channel 0 
  ROW_BUFFER_MISS:      36718
  FULL:     530545
