WARNING: physical memory size is smaller than virtual memory size.

*** ChampSim Multicore Out-of-Order Simulator ***
Warmup Instructions: 25000000
Simulation Instructions: 25000000
Number of CPUs: 1
Page size: 4096

Off-chip DRAM Size: 4 GiB Channels: 1 Width: 64-bit Data Race: 800 MT/s
Heartbeat CPU 0 instructions: 10000002 cycles: 2608261 heartbeat IPC: 3.834 cumulative IPC: 3.834 (Simulation time: 00 hr 00 min 36 sec)
Heartbeat CPU 0 instructions: 20000001 cycles: 5184796 heartbeat IPC: 3.881 cumulative IPC: 3.857 (Simulation time: 00 hr 01 min 14 sec)
Warmup finished CPU 0 instructions: 25000000 cycles: 6480342 cumulative IPC: 3.858 (Simulation time: 00 hr 01 min 33 sec)
Warmup complete CPU 0 instructions: 25000000 cycles: 6480342 cumulative IPC: 3.858 (Simulation time: 00 hr 01 min 33 sec)
Heartbeat CPU 0 instructions: 30000003 cycles: 29429810 heartbeat IPC: 0.4125 cumulative IPC: 0.2179 (Simulation time: 00 hr 04 min 31 sec)
Heartbeat CPU 0 instructions: 40000001 cycles: 76554928 heartbeat IPC: 0.2122 cumulative IPC: 0.2141 (Simulation time: 00 hr 10 min 53 sec)
Heartbeat CPU 0 instructions: 50000003 cycles: 121789657 heartbeat IPC: 0.2211 cumulative IPC: 0.2168 (Simulation time: 00 hr 16 min 47 sec)
Simulation finished CPU 0 instructions: 25000003 cycles: 115309316 cumulative IPC: 0.2168 (Simulation time: 00 hr 16 min 47 sec)
Simulation complete CPU 0 instructions: 25000003 cycles: 115309316 cumulative IPC: 0.2168 (Simulation time: 00 hr 16 min 47 sec)

ChampSim completed all CPUs

=== Simulation ===
CPU 0 runs ./traces/lbm_94B.trace.xz
Region of Interest Statistics

CPU 0 cumulative IPC: 0.2168 instructions: 25000003 cycles: 115309316
CPU 0 Branch Prediction Accuracy: 98.94% MPKI: 0.1259 Average ROB Occupancy at Mispredict: 268.6
Branch type MPKI
BRANCH_DIRECT_JUMP: 0
BRANCH_INDIRECT: 0
BRANCH_CONDITIONAL: 0.126
BRANCH_DIRECT_CALL: 0
BRANCH_INDIRECT_CALL: 0
BRANCH_RETURN: 0

LLC TOTAL        ACCESS:    1427778 HIT:     435667 MISS:     992111
LLC LOAD         ACCESS:     195529 HIT:         42 MISS:     195487
LLC RFO          ACCESS:     615715 HIT:      46268 MISS:     569447
LLC PREFETCH     ACCESS:          0 HIT:          0 MISS:          0
LLC WRITE        ACCESS:     615708 HIT:     388656 MISS:     227052
LLC TRANSLATION  ACCESS:        826 HIT:        701 MISS:        125
LLC PREFETCH REQUESTED:          0 ISSUED:          0 USEFUL:          0 USELESS:          0
LLC AVERAGE MISS LATENCY: 1397 cycles
cpu0_DTLB TOTAL        ACCESS:    4224829 HIT:    4209175 MISS:      15654
cpu0_DTLB LOAD         ACCESS:    4224829 HIT:    4209175 MISS:      15654
cpu0_DTLB RFO          ACCESS:          0 HIT:          0 MISS:          0
cpu0_DTLB PREFETCH     ACCESS:          0 HIT:          0 MISS:          0
cpu0_DTLB WRITE        ACCESS:          0 HIT:          0 MISS:          0
cpu0_DTLB TRANSLATION  ACCESS:          0 HIT:          0 MISS:          0
cpu0_DTLB PREFETCH REQUESTED:          0 ISSUED:          0 USEFUL:          0 USELESS:          0
cpu0_DTLB AVERAGE MISS LATENCY: 183.5 cycles
cpu0_ITLB TOTAL        ACCESS:          0 HIT:          0 MISS:          0
cpu0_ITLB LOAD         ACCESS:          0 HIT:          0 MISS:          0
cpu0_ITLB RFO          ACCESS:          0 HIT:          0 MISS:          0
cpu0_ITLB PREFETCH     ACCESS:          0 HIT:          0 MISS:          0
cpu0_ITLB WRITE        ACCESS:          0 HIT:          0 MISS:          0
cpu0_ITLB TRANSLATION  ACCESS:          0 HIT:          0 MISS:          0
cpu0_ITLB PREFETCH REQUESTED:          0 ISSUED:          0 USEFUL:          0 USELESS:          0
cpu0_ITLB AVERAGE MISS LATENCY: -nan cycles
cpu0_L1D TOTAL        ACCESS:    5129759 HIT:    2508502 MISS:    2621257
cpu0_L1D LOAD         ACCESS:    2505853 HIT:    1018049 MISS:    1487804
cpu0_L1D RFO          ACCESS:          0 HIT:          0 MISS:          0
cpu0_L1D PREFETCH     ACCESS:          0 HIT:          0 MISS:          0
cpu0_L1D WRITE        ACCESS:    2611665 HIT:    1489286 MISS:    1122379
cpu0_L1D TRANSLATION  ACCESS:      12241 HIT:       1167 MISS:      11074
cpu0_L1D PREFETCH REQUESTED:          0 ISSUED:          0 USEFUL:          0 USELESS:          0
cpu0_L1D AVERAGE MISS LATENCY: 490.3 cycles
cpu0_L1I TOTAL        ACCESS:          0 HIT:          0 MISS:          0
cpu0_L1I LOAD         ACCESS:          0 HIT:          0 MISS:          0
cpu0_L1I RFO          ACCESS:          0 HIT:          0 MISS:          0
cpu0_L1I PREFETCH     ACCESS:          0 HIT:          0 MISS:          0
cpu0_L1I WRITE        ACCESS:          0 HIT:          0 MISS:          0
cpu0_L1I TRANSLATION  ACCESS:          0 HIT:          0 MISS:          0
cpu0_L1I PREFETCH REQUESTED:          0 ISSUED:          0 USEFUL:          0 USELESS:          0
cpu0_L1I AVERAGE MISS LATENCY: -nan cycles
cpu0_L2C TOTAL        ACCESS:    2410485 HIT:    1598414 MISS:     812071
cpu0_L2C LOAD         ACCESS:     195656 HIT:        127 MISS:     195529
cpu0_L2C RFO          ACCESS:    1101858 HIT:     486142 MISS:     615716
cpu0_L2C PREFETCH     ACCESS:          0 HIT:          0 MISS:          0
cpu0_L2C WRITE        ACCESS:    1101897 HIT:    1101897 MISS:          0
cpu0_L2C TRANSLATION  ACCESS:      11074 HIT:      10248 MISS:        826
cpu0_L2C PREFETCH REQUESTED:          0 ISSUED:          0 USEFUL:          0 USELESS:          0
cpu0_L2C AVERAGE MISS LATENCY: 1728 cycles
cpu0_STLB TOTAL        ACCESS:      12229 HIT:          0 MISS:      12229
cpu0_STLB LOAD         ACCESS:      12229 HIT:          0 MISS:      12229
cpu0_STLB RFO          ACCESS:          0 HIT:          0 MISS:          0
cpu0_STLB PREFETCH     ACCESS:          0 HIT:          0 MISS:          0
cpu0_STLB WRITE        ACCESS:          0 HIT:          0 MISS:          0
cpu0_STLB TRANSLATION  ACCESS:          0 HIT:          0 MISS:          0
cpu0_STLB PREFETCH REQUESTED:          0 ISSUED:          0 USEFUL:          0 USELESS:          0
cpu0_STLB AVERAGE MISS LATENCY: 254.8 cycles

DRAM Statistics

Channel 0 RQ ROW_BUFFER_HIT:      69647
  ROW_BUFFER_MISS:     695121
 AVG DBUS CONGESTED CYCLE: 3.979
WQ ROW_BUFFER_HIT: Channel 0 
  ROW_BUFFER_MISS:      36587
  FULL:     532451
