WARNING: physical memory size is smaller than virtual memory size.

*** ChampSim Multicore Out-of-Order Simulator ***
Warmup Instructions: 25000000
Simulation Instructions: 25000000
Number of CPUs: 1
Page size: 4096

Off-chip DRAM Size: 4 GiB Channels: 1 Width: 64-bit Data Race: 800 MT/s
Heartbeat CPU 0 instructions: 10000001 cycles: 2526239 heartbeat IPC: 3.958 cumulative IPC: 3.958 (Simulation time: 00 hr 00 min 40 sec)
Heartbeat CPU 0 instructions: 20000001 cycles: 5052686 heartbeat IPC: 3.958 cumulative IPC: 3.958 (Simulation time: 00 hr 01 min 22 sec)
Warmup finished CPU 0 instructions: 25000003 cycles: 6316065 cumulative IPC: 3.958 (Simulation time: 00 hr 01 min 42 sec)
Warmup complete CPU 0 instructions: 25000003 cycles: 6316065 cumulative IPC: 3.958 (Simulation time: 00 hr 01 min 42 sec)
Heartbeat CPU 0 instructions: 30000003 cycles: 13089413 heartbeat IPC: 1.244 cumulative IPC: 0.7382 (Simulation time: 00 hr 02 min 52 sec)
Heartbeat CPU 0 instructions: 40000001 cycles: 30525103 heartbeat IPC: 0.5735 cumulative IPC: 0.6196 (Simulation time: 00 hr 05 min 41 sec)
Heartbeat CPU 0 instructions: 50000003 cycles: 62854445 heartbeat IPC: 0.3093 cumulative IPC: 0.4422 (Simulation time: 00 hr 10 min 41 sec)
Simulation finished CPU 0 instructions: 25000000 cycles: 56538381 cumulative IPC: 0.4422 (Simulation time: 00 hr 10 min 41 sec)
Simulation complete CPU 0 instructions: 25000000 cycles: 56538381 cumulative IPC: 0.4422 (Simulation time: 00 hr 10 min 41 sec)

ChampSim completed all CPUs

=== Simulation ===
CPU 0 runs ./traces/leslie3d_1116B.trace.xz
Region of Interest Statistics

CPU 0 cumulative IPC: 0.4422 instructions: 25000000 cycles: 56538381
CPU 0 Branch Prediction Accuracy: 98.2% MPKI: 1.067 Average ROB Occupancy at Mispredict: 298.3
Branch type MPKI
BRANCH_DIRECT_JUMP: 0.00032
BRANCH_INDIRECT: 0
BRANCH_CONDITIONAL: 1.06
BRANCH_DIRECT_CALL: 0.00228
BRANCH_INDIRECT_CALL: 0
BRANCH_RETURN: 0.0022

LLC TOTAL        ACCESS:     913718 HIT:     165095 MISS:     748623
LLC LOAD         ACCESS:     405849 HIT:      35224 MISS:     370625
LLC RFO          ACCESS:     253605 HIT:        106 MISS:     253499
LLC PREFETCH     ACCESS:          0 HIT:          0 MISS:          0
LLC WRITE        ACCESS:     253270 HIT:     129080 MISS:     124190
LLC TRANSLATION  ACCESS:        994 HIT:        685 MISS:        309
LLC PREFETCH REQUESTED:          0 ISSUED:          0 USEFUL:          0 USELESS:          0
LLC AVERAGE MISS LATENCY: 799 cycles
cpu0_DTLB TOTAL        ACCESS:    6192273 HIT:    6114750 MISS:      77523
cpu0_DTLB LOAD         ACCESS:    6192273 HIT:    6114750 MISS:      77523
cpu0_DTLB RFO          ACCESS:          0 HIT:          0 MISS:          0
cpu0_DTLB PREFETCH     ACCESS:          0 HIT:          0 MISS:          0
cpu0_DTLB WRITE        ACCESS:          0 HIT:          0 MISS:          0
cpu0_DTLB TRANSLATION  ACCESS:          0 HIT:          0 MISS:          0
cpu0_DTLB PREFETCH REQUESTED:          0 ISSUED:          0 USEFUL:          0 USELESS:          0
cpu0_DTLB AVERAGE MISS LATENCY: 18.45 cycles
cpu0_ITLB TOTAL        ACCESS:      74776 HIT:      74753 MISS:         23
cpu0_ITLB LOAD         ACCESS:      74776 HIT:      74753 MISS:         23
cpu0_ITLB RFO          ACCESS:          0 HIT:          0 MISS:          0
cpu0_ITLB PREFETCH     ACCESS:          0 HIT:          0 MISS:          0
cpu0_ITLB WRITE        ACCESS:          0 HIT:          0 MISS:          0
cpu0_ITLB TRANSLATION  ACCESS:          0 HIT:          0 MISS:          0
cpu0_ITLB PREFETCH REQUESTED:          0 ISSUED:          0 USEFUL:          0 USELESS:          0
cpu0_ITLB AVERAGE MISS LATENCY: 323.9 cycles
cpu0_L1D TOTAL        ACCESS:    8887635 HIT:    5026154 MISS:    3861481
cpu0_L1D LOAD         ACCESS:    5683239 HIT:    3915876 MISS:    1767363
cpu0_L1D RFO          ACCESS:          0 HIT:          0 MISS:          0
cpu0_L1D PREFETCH     ACCESS:          0 HIT:          0 MISS:          0
cpu0_L1D WRITE        ACCESS:    3194944 HIT:    1103246 MISS:    2091698
cpu0_L1D TRANSLATION  ACCESS:       9452 HIT:       7032 MISS:       2420
cpu0_L1D PREFETCH REQUESTED:          0 ISSUED:          0 USEFUL:          0 USELESS:          0
cpu0_L1D AVERAGE MISS LATENCY: 135.7 cycles
cpu0_L1I TOTAL        ACCESS:      98818 HIT:      98615 MISS:        203
cpu0_L1I LOAD         ACCESS:      98818 HIT:      98615 MISS:        203
cpu0_L1I RFO          ACCESS:          0 HIT:          0 MISS:          0
cpu0_L1I PREFETCH     ACCESS:          0 HIT:          0 MISS:          0
cpu0_L1I WRITE        ACCESS:          0 HIT:          0 MISS:          0
cpu0_L1I TRANSLATION  ACCESS:          0 HIT:          0 MISS:          0
cpu0_L1I PREFETCH REQUESTED:          0 ISSUED:          0 USEFUL:          0 USELESS:          0
cpu0_L1I AVERAGE MISS LATENCY: 402.2 cycles
cpu0_L2C TOTAL        ACCESS:    1214556 HIT:     554072 MISS:     660484
cpu0_L2C LOAD         ACCESS:     545548 HIT:     139699 MISS:     405849
cpu0_L2C RFO          ACCESS:     312700 HIT:      59095 MISS:     253605
cpu0_L2C PREFETCH     ACCESS:          0 HIT:          0 MISS:          0
cpu0_L2C WRITE        ACCESS:     353888 HIT:     353852 MISS:         36
cpu0_L2C TRANSLATION  ACCESS:       2420 HIT:       1426 MISS:        994
cpu0_L2C PREFETCH REQUESTED:          0 ISSUED:          0 USEFUL:          0 USELESS:          0
cpu0_L2C AVERAGE MISS LATENCY: 926.6 cycles
cpu0_STLB TOTAL        ACCESS:      15226 HIT:       5785 MISS:       9441
cpu0_STLB LOAD         ACCESS:      15226 HIT:       5785 MISS:       9441
cpu0_STLB RFO          ACCESS:          0 HIT:          0 MISS:          0
cpu0_STLB PREFETCH     ACCESS:          0 HIT:          0 MISS:          0
cpu0_STLB WRITE        ACCESS:          0 HIT:          0 MISS:          0
cpu0_STLB TRANSLATION  ACCESS:          0 HIT:          0 MISS:          0
cpu0_STLB PREFETCH REQUESTED:          0 ISSUED:          0 USEFUL:          0 USELESS:          0
cpu0_STLB AVERAGE MISS LATENCY: 230.8 cycles

DRAM Statistics

Channel 0 RQ ROW_BUFFER_HIT:     209551
  ROW_BUFFER_MISS:     414876
 AVG DBUS CONGESTED CYCLE: 3.963
WQ ROW_BUFFER_HIT: Channel 0 
  ROW_BUFFER_MISS:      32130
  FULL:     211056
