WARNING: physical memory size is smaller than virtual memory size.

*** ChampSim Multicore Out-of-Order Simulator ***
Warmup Instructions: 25000000
Simulation Instructions: 25000000
Number of CPUs: 1
Page size: 4096

Off-chip DRAM Size: 4 GiB Channels: 1 Width: 64-bit Data Race: 800 MT/s
Heartbeat CPU 0 instructions: 10000001 cycles: 2500071 heartbeat IPC: 4 cumulative IPC: 4 (Simulation time: 00 hr 00 min 49 sec)
Heartbeat CPU 0 instructions: 20000001 cycles: 5127947 heartbeat IPC: 3.805 cumulative IPC: 3.9 (Simulation time: 00 hr 01 min 35 sec)
Warmup finished CPU 0 instructions: 25000001 cycles: 6458980 cumulative IPC: 3.871 (Simulation time: 00 hr 01 min 57 sec)
Warmup complete CPU 0 instructions: 25000001 cycles: 6458980 cumulative IPC: 3.871 (Simulation time: 00 hr 01 min 57 sec)
Heartbeat CPU 0 instructions: 30000000 cycles: 16850530 heartbeat IPC: 0.8531 cumulative IPC: 0.4812 (Simulation time: 00 hr 03 min 53 sec)
Heartbeat CPU 0 instructions: 40000000 cycles: 27017538 heartbeat IPC: 0.9836 cumulative IPC: 0.7296 (Simulation time: 00 hr 06 min 14 sec)
Heartbeat CPU 0 instructions: 50000003 cycles: 43499531 heartbeat IPC: 0.6067 cumulative IPC: 0.6749 (Simulation time: 00 hr 09 min 31 sec)
Simulation finished CPU 0 instructions: 25000002 cycles: 37040552 cumulative IPC: 0.6749 (Simulation time: 00 hr 09 min 31 sec)
Simulation complete CPU 0 instructions: 25000002 cycles: 37040552 cumulative IPC: 0.6749 (Simulation time: 00 hr 09 min 31 sec)

ChampSim completed all CPUs

=== Simulation ===
CPU 0 runs ./traces/libquantum_1210B.trace.xz
Region of Interest Statistics

CPU 0 cumulative IPC: 0.6749 instructions: 25000002 cycles: 37040552
CPU 0 Branch Prediction Accuracy: 96.18% MPKI: 8.916 Average ROB Occupancy at Mispredict: 2.094
Branch type MPKI
BRANCH_DIRECT_JUMP: 8e-05
BRANCH_INDIRECT: 0
BRANCH_CONDITIONAL: 8.92
BRANCH_DIRECT_CALL: 0.0002
BRANCH_INDIRECT_CALL: 0
BRANCH_RETURN: 0.0002

LLC TOTAL        ACCESS:     839406 HIT:      41191 MISS:     798215
LLC LOAD         ACCESS:        621 HIT:         65 MISS:        556
LLC RFO          ACCESS:          8 HIT:          7 MISS:          1
LLC PREFETCH     ACCESS:     741123 HIT:      30713 MISS:     710410
LLC WRITE        ACCESS:      97624 HIT:      10382 MISS:      87242
LLC TRANSLATION  ACCESS:         30 HIT:         24 MISS:          6
LLC PREFETCH REQUESTED:          0 ISSUED:          0 USEFUL:          0 USELESS:          0
LLC AVERAGE MISS LATENCY: 505.8 cycles
cpu0_DTLB TOTAL        ACCESS:    3114310 HIT:    3068242 MISS:      46068
cpu0_DTLB LOAD         ACCESS:    3114310 HIT:    3068242 MISS:      46068
cpu0_DTLB RFO          ACCESS:          0 HIT:          0 MISS:          0
cpu0_DTLB PREFETCH     ACCESS:          0 HIT:          0 MISS:          0
cpu0_DTLB WRITE        ACCESS:          0 HIT:          0 MISS:          0
cpu0_DTLB TRANSLATION  ACCESS:          0 HIT:          0 MISS:          0
cpu0_DTLB PREFETCH REQUESTED:          0 ISSUED:          0 USEFUL:          0 USELESS:          0
cpu0_DTLB AVERAGE MISS LATENCY: 2.078 cycles
cpu0_ITLB TOTAL        ACCESS:          7 HIT:          7 MISS:          0
cpu0_ITLB LOAD         ACCESS:          7 HIT:          7 MISS:          0
cpu0_ITLB RFO          ACCESS:          0 HIT:          0 MISS:          0
cpu0_ITLB PREFETCH     ACCESS:          0 HIT:          0 MISS:          0
cpu0_ITLB WRITE        ACCESS:          0 HIT:          0 MISS:          0
cpu0_ITLB TRANSLATION  ACCESS:          0 HIT:          0 MISS:          0
cpu0_ITLB PREFETCH REQUESTED:          0 ISSUED:          0 USEFUL:          0 USELESS:          0
cpu0_ITLB AVERAGE MISS LATENCY: -nan cycles
cpu0_L1D TOTAL        ACCESS:    6039383 HIT:     693117 MISS:    5346266
cpu0_L1D LOAD         ACCESS:    2913684 HIT:     372555 MISS:    2541129
cpu0_L1D RFO          ACCESS:          0 HIT:          0 MISS:          0
cpu0_L1D PREFETCH     ACCESS:    2913657 HIT:     108577 MISS:    2805080
cpu0_L1D WRITE        ACCESS:     200648 HIT:     200621 MISS:         27
cpu0_L1D TRANSLATION  ACCESS:      11394 HIT:      11364 MISS:         30
cpu0_L1D PREFETCH REQUESTED:    2913684 ISSUED:    2913656 USEFUL:     724349 USELESS:         35
cpu0_L1D AVERAGE MISS LATENCY: 55.52 cycles
cpu0_L1I TOTAL        ACCESS:          7 HIT:          3 MISS:          4
cpu0_L1I LOAD         ACCESS:          7 HIT:          3 MISS:          4
cpu0_L1I RFO          ACCESS:          0 HIT:          0 MISS:          0
cpu0_L1I PREFETCH     ACCESS:          0 HIT:          0 MISS:          0
cpu0_L1I WRITE        ACCESS:          0 HIT:          0 MISS:          0
cpu0_L1I TRANSLATION  ACCESS:          0 HIT:          0 MISS:          0
cpu0_L1I PREFETCH REQUESTED:          0 ISSUED:          0 USEFUL:          0 USELESS:          0
cpu0_L1I AVERAGE MISS LATENCY: 283.5 cycles
cpu0_L2C TOTAL        ACCESS:    2927315 HIT:     139750 MISS:    2787565
cpu0_L2C LOAD         ACCESS:       4387 HIT:         14 MISS:       4373
cpu0_L2C RFO          ACCESS:          8 HIT:          0 MISS:          8
cpu0_L2C PREFETCH     ACCESS:    2825303 HIT:      42149 MISS:    2783154
cpu0_L2C WRITE        ACCESS:      97587 HIT:      97587 MISS:          0
cpu0_L2C TRANSLATION  ACCESS:         30 HIT:          0 MISS:         30
cpu0_L2C PREFETCH REQUESTED:    2100920 ISSUED:    2100920 USEFUL:     102826 USELESS:     609519
cpu0_L2C AVERAGE MISS LATENCY: 149.3 cycles
cpu0_STLB TOTAL        ACCESS:      11394 HIT:          0 MISS:      11394
cpu0_STLB LOAD         ACCESS:      11394 HIT:          0 MISS:      11394
cpu0_STLB RFO          ACCESS:          0 HIT:          0 MISS:          0
cpu0_STLB PREFETCH     ACCESS:          0 HIT:          0 MISS:          0
cpu0_STLB WRITE        ACCESS:          0 HIT:          0 MISS:          0
cpu0_STLB TRANSLATION  ACCESS:          0 HIT:          0 MISS:          0
cpu0_STLB PREFETCH REQUESTED:          0 ISSUED:          0 USEFUL:          0 USELESS:          0
cpu0_STLB AVERAGE MISS LATENCY: 6.261 cycles

DRAM Statistics

Channel 0 RQ ROW_BUFFER_HIT:     607105
  ROW_BUFFER_MISS:      91020
 AVG DBUS CONGESTED CYCLE: 3.942
WQ ROW_BUFFER_HIT: Channel 0 
  ROW_BUFFER_MISS:      33969
  FULL:      68021
