WARNING: physical memory size is smaller than virtual memory size.

*** ChampSim Multicore Out-of-Order Simulator ***
Warmup Instructions: 25000000
Simulation Instructions: 25000000
Number of CPUs: 1
Page size: 4096

Off-chip DRAM Size: 4 GiB Channels: 1 Width: 64-bit Data Race: 800 MT/s
Heartbeat CPU 0 instructions: 10000000 cycles: 2500074 heartbeat IPC: 4 cumulative IPC: 4 (Simulation time: 00 hr 00 min 32 sec)
Heartbeat CPU 0 instructions: 20000000 cycles: 5000074 heartbeat IPC: 4 cumulative IPC: 4 (Simulation time: 00 hr 01 min 04 sec)
Warmup finished CPU 0 instructions: 25000000 cycles: 6250075 cumulative IPC: 4 (Simulation time: 00 hr 01 min 21 sec)
Warmup complete CPU 0 instructions: 25000000 cycles: 6250075 cumulative IPC: 4 (Simulation time: 00 hr 01 min 21 sec)
Heartbeat CPU 0 instructions: 30000003 cycles: 24845904 heartbeat IPC: 0.5039 cumulative IPC: 0.2689 (Simulation time: 00 hr 03 min 14 sec)
Heartbeat CPU 0 instructions: 40000003 cycles: 67489260 heartbeat IPC: 0.2345 cumulative IPC: 0.2449 (Simulation time: 00 hr 07 min 16 sec)
Heartbeat CPU 0 instructions: 50000001 cycles: 110088882 heartbeat IPC: 0.2347 cumulative IPC: 0.2408 (Simulation time: 00 hr 11 min 09 sec)
Simulation finished CPU 0 instructions: 25000001 cycles: 103838808 cumulative IPC: 0.2408 (Simulation time: 00 hr 11 min 09 sec)
Simulation complete CPU 0 instructions: 25000001 cycles: 103838808 cumulative IPC: 0.2408 (Simulation time: 00 hr 11 min 09 sec)

ChampSim completed all CPUs

=== Simulation ===
CPU 0 runs ./traces/libquantum_1735B.trace.xz
Region of Interest Statistics

CPU 0 cumulative IPC: 0.2408 instructions: 25000001 cycles: 103838808
CPU 0 Branch Prediction Accuracy: 88.5% MPKI: 24.39 Average ROB Occupancy at Mispredict: 3.876
Branch type MPKI
BRANCH_DIRECT_JUMP: 0
BRANCH_INDIRECT: 0
BRANCH_CONDITIONAL: 24.4
BRANCH_DIRECT_CALL: 8e-05
BRANCH_INDIRECT_CALL: 0
BRANCH_RETURN: 8e-05

LLC TOTAL        ACCESS:     959173 HIT:      30716 MISS:     928457
LLC LOAD         ACCESS:     662639 HIT:      30707 MISS:     631932
LLC RFO          ACCESS:          8 HIT:          0 MISS:          8
LLC PREFETCH     ACCESS:          0 HIT:          0 MISS:          0
LLC WRITE        ACCESS:     296498 HIT:          7 MISS:     296491
LLC TRANSLATION  ACCESS:         28 HIT:          2 MISS:         26
LLC PREFETCH REQUESTED:          0 ISSUED:          0 USEFUL:          0 USELESS:          0
LLC AVERAGE MISS LATENCY: 212.5 cycles
cpu0_DTLB TOTAL        ACCESS:    3222502 HIT:    3188721 MISS:      33781
cpu0_DTLB LOAD         ACCESS:    3222502 HIT:    3188721 MISS:      33781
cpu0_DTLB RFO          ACCESS:          0 HIT:          0 MISS:          0
cpu0_DTLB PREFETCH     ACCESS:          0 HIT:          0 MISS:          0
cpu0_DTLB WRITE        ACCESS:          0 HIT:          0 MISS:          0
cpu0_DTLB TRANSLATION  ACCESS:          0 HIT:          0 MISS:          0
cpu0_DTLB PREFETCH REQUESTED:          0 ISSUED:          0 USEFUL:          0 USELESS:          0
cpu0_DTLB AVERAGE MISS LATENCY: 3.312 cycles
cpu0_ITLB TOTAL        ACCESS:          2 HIT:          2 MISS:          0
cpu0_ITLB LOAD         ACCESS:          2 HIT:          2 MISS:          0
cpu0_ITLB RFO          ACCESS:          0 HIT:          0 MISS:          0
cpu0_ITLB PREFETCH     ACCESS:          0 HIT:          0 MISS:          0
cpu0_ITLB WRITE        ACCESS:          0 HIT:          0 MISS:          0
cpu0_ITLB TRANSLATION  ACCESS:          0 HIT:          0 MISS:          0
cpu0_ITLB PREFETCH REQUESTED:          0 ISSUED:          0 USEFUL:          0 USELESS:          0
cpu0_ITLB AVERAGE MISS LATENCY: -nan cycles
cpu0_L1D TOTAL        ACCESS:    3232914 HIT:    1251920 MISS:    1980994
cpu0_L1D LOAD         ACCESS:    2649846 HIT:     668908 MISS:    1980938
cpu0_L1D RFO          ACCESS:          0 HIT:          0 MISS:          0
cpu0_L1D PREFETCH     ACCESS:          0 HIT:          0 MISS:          0
cpu0_L1D WRITE        ACCESS:     572706 HIT:     572678 MISS:         28
cpu0_L1D TRANSLATION  ACCESS:      10362 HIT:      10334 MISS:         28
cpu0_L1D PREFETCH REQUESTED:          0 ISSUED:          0 USEFUL:          0 USELESS:          0
cpu0_L1D AVERAGE MISS LATENCY: 108.8 cycles
cpu0_L1I TOTAL        ACCESS:          2 HIT:          2 MISS:          0
cpu0_L1I LOAD         ACCESS:          2 HIT:          2 MISS:          0
cpu0_L1I RFO          ACCESS:          0 HIT:          0 MISS:          0
cpu0_L1I PREFETCH     ACCESS:          0 HIT:          0 MISS:          0
cpu0_L1I WRITE        ACCESS:          0 HIT:          0 MISS:          0
cpu0_L1I TRANSLATION  ACCESS:          0 HIT:          0 MISS:          0
cpu0_L1I PREFETCH REQUESTED:          0 ISSUED:          0 USEFUL:          0 USELESS:          0
cpu0_L1I AVERAGE MISS LATENCY: -nan cycles
cpu0_L2C TOTAL        ACCESS:     956507 HIT:     293833 MISS:     662674
cpu0_L2C LOAD         ACCESS:     662638 HIT:          0 MISS:     662638
cpu0_L2C RFO          ACCESS:          8 HIT:          0 MISS:          8
cpu0_L2C PREFETCH     ACCESS:          0 HIT:          0 MISS:          0
cpu0_L2C WRITE        ACCESS:     293833 HIT:     293833 MISS:          0
cpu0_L2C TRANSLATION  ACCESS:         28 HIT:          0 MISS:         28
cpu0_L2C PREFETCH REQUESTED:          0 ISSUED:          0 USEFUL:          0 USELESS:          0
cpu0_L2C AVERAGE MISS LATENCY: 318.6 cycles
cpu0_STLB TOTAL        ACCESS:      10362 HIT:          0 MISS:      10362
cpu0_STLB LOAD         ACCESS:      10362 HIT:          0 MISS:      10362
cpu0_STLB RFO          ACCESS:          0 HIT:          0 MISS:          0
cpu0_STLB PREFETCH     ACCESS:          0 HIT:          0 MISS:          0
cpu0_STLB WRITE        ACCESS:          0 HIT:          0 MISS:          0
cpu0_STLB TRANSLATION  ACCESS:          0 HIT:          0 MISS:          0
cpu0_STLB PREFETCH REQUESTED:          0 ISSUED:          0 USEFUL:          0 USELESS:          0
cpu0_STLB AVERAGE MISS LATENCY: 6.905 cycles

DRAM Statistics

Channel 0 RQ ROW_BUFFER_HIT:     301469
  ROW_BUFFER_MISS:     330489
 AVG DBUS CONGESTED CYCLE: 3.972
WQ ROW_BUFFER_HIT: Channel 0 
  ROW_BUFFER_MISS:     252991
  FULL:      44918
