WARNING: physical memory size is smaller than virtual memory size.

*** ChampSim Multicore Out-of-Order Simulator ***
Warmup Instructions: 25000000
Simulation Instructions: 25000000
Number of CPUs: 1
Page size: 4096

Off-chip DRAM Size: 4 GiB Channels: 1 Width: 64-bit Data Race: 800 MT/s
Heartbeat CPU 0 instructions: 10000001 cycles: 2500071 heartbeat IPC: 4 cumulative IPC: 4 (Simulation time: 00 hr 00 min 31 sec)
Heartbeat CPU 0 instructions: 20000001 cycles: 5127952 heartbeat IPC: 3.805 cumulative IPC: 3.9 (Simulation time: 00 hr 01 min 03 sec)
Warmup finished CPU 0 instructions: 25000003 cycles: 6458985 cumulative IPC: 3.871 (Simulation time: 00 hr 01 min 18 sec)
Warmup complete CPU 0 instructions: 25000003 cycles: 6458985 cumulative IPC: 3.871 (Simulation time: 00 hr 01 min 18 sec)
Heartbeat CPU 0 instructions: 30000000 cycles: 22670020 heartbeat IPC: 0.5701 cumulative IPC: 0.3084 (Simulation time: 00 hr 03 min 10 sec)
Heartbeat CPU 0 instructions: 40000000 cycles: 32831868 heartbeat IPC: 0.9841 cumulative IPC: 0.5688 (Simulation time: 00 hr 04 min 46 sec)
Heartbeat CPU 0 instructions: 50000003 cycles: 54855290 heartbeat IPC: 0.4541 cumulative IPC: 0.5166 (Simulation time: 00 hr 07 min 36 sec)
Simulation finished CPU 0 instructions: 25000000 cycles: 48396306 cumulative IPC: 0.5166 (Simulation time: 00 hr 07 min 36 sec)
Simulation complete CPU 0 instructions: 25000000 cycles: 48396306 cumulative IPC: 0.5166 (Simulation time: 00 hr 07 min 36 sec)

ChampSim completed all CPUs

=== Simulation ===
CPU 0 runs ./traces/libquantum_1210B.trace.xz
Region of Interest Statistics

CPU 0 cumulative IPC: 0.5166 instructions: 25000000 cycles: 48396306
CPU 0 Branch Prediction Accuracy: 96.18% MPKI: 8.916 Average ROB Occupancy at Mispredict: 2.094
Branch type MPKI
BRANCH_DIRECT_JUMP: 8e-05
BRANCH_INDIRECT: 0
BRANCH_CONDITIONAL: 8.92
BRANCH_DIRECT_CALL: 0.0002
BRANCH_INDIRECT_CALL: 0
BRANCH_RETURN: 0.0002

LLC TOTAL        ACCESS:     826404 HIT:      30728 MISS:     795676
LLC LOAD         ACCESS:     728736 HIT:      30717 MISS:     698019
LLC RFO          ACCESS:          8 HIT:          0 MISS:          8
LLC PREFETCH     ACCESS:          0 HIT:          0 MISS:          0
LLC WRITE        ACCESS:      97630 HIT:          9 MISS:      97621
LLC TRANSLATION  ACCESS:         30 HIT:          2 MISS:         28
LLC PREFETCH REQUESTED:          0 ISSUED:          0 USEFUL:          0 USELESS:          0
LLC AVERAGE MISS LATENCY: 395.4 cycles
cpu0_DTLB TOTAL        ACCESS:    3114223 HIT:    3069084 MISS:      45139
cpu0_DTLB LOAD         ACCESS:    3114223 HIT:    3069084 MISS:      45139
cpu0_DTLB RFO          ACCESS:          0 HIT:          0 MISS:          0
cpu0_DTLB PREFETCH     ACCESS:          0 HIT:          0 MISS:          0
cpu0_DTLB WRITE        ACCESS:          0 HIT:          0 MISS:          0
cpu0_DTLB TRANSLATION  ACCESS:          0 HIT:          0 MISS:          0
cpu0_DTLB PREFETCH REQUESTED:          0 ISSUED:          0 USEFUL:          0 USELESS:          0
cpu0_DTLB AVERAGE MISS LATENCY: 2.283 cycles
cpu0_ITLB TOTAL        ACCESS:          7 HIT:          7 MISS:          0
cpu0_ITLB LOAD         ACCESS:          7 HIT:          7 MISS:          0
cpu0_ITLB RFO          ACCESS:          0 HIT:          0 MISS:          0
cpu0_ITLB PREFETCH     ACCESS:          0 HIT:          0 MISS:          0
cpu0_ITLB WRITE        ACCESS:          0 HIT:          0 MISS:          0
cpu0_ITLB TRANSLATION  ACCESS:          0 HIT:          0 MISS:          0
cpu0_ITLB PREFETCH REQUESTED:          0 ISSUED:          0 USEFUL:          0 USELESS:          0
cpu0_ITLB AVERAGE MISS LATENCY: -nan cycles
cpu0_L1D TOTAL        ACCESS:    3125686 HIT:     434170 MISS:    2691516
cpu0_L1D LOAD         ACCESS:    2913644 HIT:     222185 MISS:    2691459
cpu0_L1D RFO          ACCESS:          0 HIT:          0 MISS:          0
cpu0_L1D PREFETCH     ACCESS:          0 HIT:          0 MISS:          0
cpu0_L1D WRITE        ACCESS:     200648 HIT:     200621 MISS:         27
cpu0_L1D TRANSLATION  ACCESS:      11394 HIT:      11364 MISS:         30
cpu0_L1D PREFETCH REQUESTED:          0 ISSUED:          0 USEFUL:          0 USELESS:          0
cpu0_L1D AVERAGE MISS LATENCY: 120.2 cycles
cpu0_L1I TOTAL        ACCESS:          7 HIT:          3 MISS:          4
cpu0_L1I LOAD         ACCESS:          7 HIT:          3 MISS:          4
cpu0_L1I RFO          ACCESS:          0 HIT:          0 MISS:          0
cpu0_L1I PREFETCH     ACCESS:          0 HIT:          0 MISS:          0
cpu0_L1I WRITE        ACCESS:          0 HIT:          0 MISS:          0
cpu0_L1I TRANSLATION  ACCESS:          0 HIT:          0 MISS:          0
cpu0_L1I PREFETCH REQUESTED:          0 ISSUED:          0 USEFUL:          0 USELESS:          0
cpu0_L1I AVERAGE MISS LATENCY: 252.5 cycles
cpu0_L2C TOTAL        ACCESS:     826361 HIT:      97588 MISS:     728773
cpu0_L2C LOAD         ACCESS:     728735 HIT:          0 MISS:     728735
cpu0_L2C RFO          ACCESS:          8 HIT:          0 MISS:          8
cpu0_L2C PREFETCH     ACCESS:          0 HIT:          0 MISS:          0
cpu0_L2C WRITE        ACCESS:      97588 HIT:      97588 MISS:          0
cpu0_L2C TRANSLATION  ACCESS:         30 HIT:          0 MISS:         30
cpu0_L2C PREFETCH REQUESTED:          0 ISSUED:          0 USEFUL:          0 USELESS:          0
cpu0_L2C AVERAGE MISS LATENCY: 452.7 cycles
cpu0_STLB TOTAL        ACCESS:      11394 HIT:          0 MISS:      11394
cpu0_STLB LOAD         ACCESS:      11394 HIT:          0 MISS:      11394
cpu0_STLB RFO          ACCESS:          0 HIT:          0 MISS:          0
cpu0_STLB PREFETCH     ACCESS:          0 HIT:          0 MISS:          0
cpu0_STLB WRITE        ACCESS:          0 HIT:          0 MISS:          0
cpu0_STLB TRANSLATION  ACCESS:          0 HIT:          0 MISS:          0
cpu0_STLB PREFETCH REQUESTED:          0 ISSUED:          0 USEFUL:          0 USELESS:          0
cpu0_STLB AVERAGE MISS LATENCY: 6.81 cycles

DRAM Statistics

Channel 0 RQ ROW_BUFFER_HIT:     613000
  ROW_BUFFER_MISS:      85055
 AVG DBUS CONGESTED CYCLE: 3.986
WQ ROW_BUFFER_HIT: Channel 0 
  ROW_BUFFER_MISS:      36619
  FULL:      61382
