WARNING: physical memory size is smaller than virtual memory size.

*** ChampSim Multicore Out-of-Order Simulator ***
Warmup Instructions: 25000000
Simulation Instructions: 25000000
Number of CPUs: 1
Page size: 4096

Off-chip DRAM Size: 4 GiB Channels: 1 Width: 64-bit Data Race: 800 MT/s
Heartbeat CPU 0 instructions: 10000001 cycles: 2500074 heartbeat IPC: 4 cumulative IPC: 4 (Simulation time: 00 hr 00 min 31 sec)
Heartbeat CPU 0 instructions: 20000001 cycles: 5000074 heartbeat IPC: 4 cumulative IPC: 4 (Simulation time: 00 hr 01 min 04 sec)
Warmup finished CPU 0 instructions: 25000001 cycles: 6250075 cumulative IPC: 4 (Simulation time: 00 hr 01 min 21 sec)
Warmup complete CPU 0 instructions: 25000001 cycles: 6250075 cumulative IPC: 4 (Simulation time: 00 hr 01 min 21 sec)
Heartbeat CPU 0 instructions: 30000002 cycles: 33395608 heartbeat IPC: 0.3522 cumulative IPC: 0.1842 (Simulation time: 00 hr 05 min 26 sec)
Heartbeat CPU 0 instructions: 40000000 cycles: 68336900 heartbeat IPC: 0.2862 cumulative IPC: 0.2416 (Simulation time: 00 hr 10 min 33 sec)
Heartbeat CPU 0 instructions: 50000003 cycles: 78498083 heartbeat IPC: 0.9841 cumulative IPC: 0.346 (Simulation time: 00 hr 12 min 08 sec)
Simulation finished CPU 0 instructions: 25000002 cycles: 72248009 cumulative IPC: 0.346 (Simulation time: 00 hr 12 min 08 sec)
Simulation complete CPU 0 instructions: 25000002 cycles: 72248009 cumulative IPC: 0.346 (Simulation time: 00 hr 12 min 08 sec)

ChampSim completed all CPUs

=== Simulation ===
CPU 0 runs ./traces/libquantum_964B.trace.xz
Region of Interest Statistics

CPU 0 cumulative IPC: 0.346 instructions: 25000002 cycles: 72248009
CPU 0 Branch Prediction Accuracy: 99.98% MPKI: 0.05316 Average ROB Occupancy at Mispredict: 89.65
Branch type MPKI
BRANCH_DIRECT_JUMP: 4e-05
BRANCH_INDIRECT: 0
BRANCH_CONDITIONAL: 0.0527
BRANCH_DIRECT_CALL: 0.0002
BRANCH_INDIRECT_CALL: 0
BRANCH_RETURN: 0.0002

LLC TOTAL        ACCESS:    1453645 HIT:      94187 MISS:    1359458
LLC LOAD         ACCESS:     927401 HIT:      61424 MISS:     865977
LLC RFO          ACCESS:          8 HIT:          0 MISS:          8
LLC PREFETCH     ACCESS:          0 HIT:          0 MISS:          0
LLC WRITE        ACCESS:     526199 HIT:      32759 MISS:     493440
LLC TRANSLATION  ACCESS:         37 HIT:          4 MISS:         33
LLC PREFETCH REQUESTED:          0 ISSUED:          0 USEFUL:          0 USELESS:          0
LLC AVERAGE MISS LATENCY: 622.2 cycles
cpu0_DTLB TOTAL        ACCESS:    4411770 HIT:    4350356 MISS:      61414
cpu0_DTLB LOAD         ACCESS:    4411770 HIT:    4350356 MISS:      61414
cpu0_DTLB RFO          ACCESS:          0 HIT:          0 MISS:          0
cpu0_DTLB PREFETCH     ACCESS:          0 HIT:          0 MISS:          0
cpu0_DTLB WRITE        ACCESS:          0 HIT:          0 MISS:          0
cpu0_DTLB TRANSLATION  ACCESS:          0 HIT:          0 MISS:          0
cpu0_DTLB PREFETCH REQUESTED:          0 ISSUED:          0 USEFUL:          0 USELESS:          0
cpu0_DTLB AVERAGE MISS LATENCY: 2.675 cycles
cpu0_ITLB TOTAL        ACCESS:          8 HIT:          7 MISS:          1
cpu0_ITLB LOAD         ACCESS:          8 HIT:          7 MISS:          1
cpu0_ITLB RFO          ACCESS:          0 HIT:          0 MISS:          0
cpu0_ITLB PREFETCH     ACCESS:          0 HIT:          0 MISS:          0
cpu0_ITLB WRITE        ACCESS:          0 HIT:          0 MISS:          0
cpu0_ITLB TRANSLATION  ACCESS:          0 HIT:          0 MISS:          0
cpu0_ITLB PREFETCH REQUESTED:          0 ISSUED:          0 USEFUL:          0 USELESS:          0
cpu0_ITLB AVERAGE MISS LATENCY: 457 cycles
cpu0_L1D TOTAL        ACCESS:    5646691 HIT:    2116410 MISS:    3530281
cpu0_L1D LOAD         ACCESS:    3533679 HIT:       3464 MISS:    3530215
cpu0_L1D RFO          ACCESS:          0 HIT:          0 MISS:          0
cpu0_L1D PREFETCH     ACCESS:          0 HIT:          0 MISS:          0
cpu0_L1D WRITE        ACCESS:    2098512 HIT:    2098483 MISS:         29
cpu0_L1D TRANSLATION  ACCESS:      14500 HIT:      14463 MISS:         37
cpu0_L1D PREFETCH REQUESTED:          0 ISSUED:          0 USEFUL:          0 USELESS:          0
cpu0_L1D AVERAGE MISS LATENCY: 239.9 cycles
cpu0_L1I TOTAL        ACCESS:          8 HIT:          5 MISS:          3
cpu0_L1I LOAD         ACCESS:          8 HIT:          5 MISS:          3
cpu0_L1I RFO          ACCESS:          0 HIT:          0 MISS:          0
cpu0_L1I PREFETCH     ACCESS:          0 HIT:          0 MISS:          0
cpu0_L1I WRITE        ACCESS:          0 HIT:          0 MISS:          0
cpu0_L1I TRANSLATION  ACCESS:          0 HIT:          0 MISS:          0
cpu0_L1I PREFETCH REQUESTED:          0 ISSUED:          0 USEFUL:          0 USELESS:          0
cpu0_L1I AVERAGE MISS LATENCY: 347.3 cycles
cpu0_L2C TOTAL        ACCESS:    1453117 HIT:     525671 MISS:     927446
cpu0_L2C LOAD         ACCESS:     927401 HIT:          0 MISS:     927401
cpu0_L2C RFO          ACCESS:          8 HIT:          0 MISS:          8
cpu0_L2C PREFETCH     ACCESS:          0 HIT:          0 MISS:          0
cpu0_L2C WRITE        ACCESS:     525671 HIT:     525671 MISS:          0
cpu0_L2C TRANSLATION  ACCESS:         37 HIT:          0 MISS:         37
cpu0_L2C PREFETCH REQUESTED:          0 ISSUED:          0 USEFUL:          0 USELESS:          0
cpu0_L2C AVERAGE MISS LATENCY: 932.9 cycles
cpu0_STLB TOTAL        ACCESS:      14500 HIT:          0 MISS:      14500
cpu0_STLB LOAD         ACCESS:      14500 HIT:          0 MISS:      14500
cpu0_STLB RFO          ACCESS:          0 HIT:          0 MISS:          0
cpu0_STLB PREFETCH     ACCESS:          0 HIT:          0 MISS:          0
cpu0_STLB WRITE        ACCESS:          0 HIT:          0 MISS:          0
cpu0_STLB TRANSLATION  ACCESS:          0 HIT:          0 MISS:          0
cpu0_STLB PREFETCH REQUESTED:          0 ISSUED:          0 USEFUL:          0 USELESS:          0
cpu0_STLB AVERAGE MISS LATENCY: 10.67 cycles

DRAM Statistics

Channel 0 RQ ROW_BUFFER_HIT:     480813
  ROW_BUFFER_MISS:     385197
 AVG DBUS CONGESTED CYCLE: 3.963
WQ ROW_BUFFER_HIT: Channel 0 
  ROW_BUFFER_MISS:     183633
  FULL:     312141
