WARNING: physical memory size is smaller than virtual memory size.

*** ChampSim Multicore Out-of-Order Simulator ***
Warmup Instructions: 25000000
Simulation Instructions: 25000000
Number of CPUs: 1
Page size: 4096

Off-chip DRAM Size: 4 GiB Channels: 1 Width: 64-bit Data Race: 800 MT/s
Heartbeat CPU 0 instructions: 10000000 cycles: 2522227 heartbeat IPC: 3.965 cumulative IPC: 3.965 (Simulation time: 00 hr 01 min 38 sec)
Heartbeat CPU 0 instructions: 20000002 cycles: 5044273 heartbeat IPC: 3.965 cumulative IPC: 3.965 (Simulation time: 00 hr 03 min 01 sec)
Warmup finished CPU 0 instructions: 25000000 cycles: 6309955 cumulative IPC: 3.962 (Simulation time: 00 hr 03 min 41 sec)
Warmup complete CPU 0 instructions: 25000000 cycles: 6309955 cumulative IPC: 3.962 (Simulation time: 00 hr 03 min 41 sec)
Heartbeat CPU 0 instructions: 30000003 cycles: 70138521 heartbeat IPC: 0.1536 cumulative IPC: 0.07833 (Simulation time: 00 hr 11 min 35 sec)
Heartbeat CPU 0 instructions: 40000000 cycles: 215454544 heartbeat IPC: 0.06882 cumulative IPC: 0.07172 (Simulation time: 00 hr 27 min 16 sec)
Heartbeat CPU 0 instructions: 50000000 cycles: 351259409 heartbeat IPC: 0.07364 cumulative IPC: 0.07247 (Simulation time: 00 hr 34 min 52 sec)
Simulation finished CPU 0 instructions: 25000000 cycles: 344949455 cumulative IPC: 0.07247 (Simulation time: 00 hr 34 min 52 sec)
Simulation complete CPU 0 instructions: 25000000 cycles: 344949455 cumulative IPC: 0.07247 (Simulation time: 00 hr 34 min 52 sec)

ChampSim completed all CPUs

=== Simulation ===
CPU 0 runs ./traces/mcf_158B.trace.xz
Region of Interest Statistics

CPU 0 cumulative IPC: 0.07247 instructions: 25000000 cycles: 344949455
CPU 0 Branch Prediction Accuracy: 82.21% MPKI: 49.39 Average ROB Occupancy at Mispredict: 14.85
Branch type MPKI
BRANCH_DIRECT_JUMP: 1.13
BRANCH_INDIRECT: 0
BRANCH_CONDITIONAL: 48.3
BRANCH_DIRECT_CALL: 0
BRANCH_INDIRECT_CALL: 0
BRANCH_RETURN: 0

LLC TOTAL        ACCESS:    5478719 HIT:    2357873 MISS:    3120846
LLC LOAD         ACCESS:    2331628 HIT:    1203019 MISS:    1128609
LLC RFO          ACCESS:      44618 HIT:      13148 MISS:      31470
LLC PREFETCH     ACCESS:    2346275 HIT:     636980 MISS:    1709295
LLC WRITE        ACCESS:     454408 HIT:     444870 MISS:       9538
LLC TRANSLATION  ACCESS:     301790 HIT:      59856 MISS:     241934
LLC PREFETCH REQUESTED:          0 ISSUED:          0 USEFUL:          0 USELESS:          0
LLC AVERAGE MISS LATENCY: 565.5 cycles
cpu0_DTLB TOTAL        ACCESS:    7701016 HIT:    4055726 MISS:    3645290
cpu0_DTLB LOAD         ACCESS:    7701016 HIT:    4055726 MISS:    3645290
cpu0_DTLB RFO          ACCESS:          0 HIT:          0 MISS:          0
cpu0_DTLB PREFETCH     ACCESS:          0 HIT:          0 MISS:          0
cpu0_DTLB WRITE        ACCESS:          0 HIT:          0 MISS:          0
cpu0_DTLB TRANSLATION  ACCESS:          0 HIT:          0 MISS:          0
cpu0_DTLB PREFETCH REQUESTED:          0 ISSUED:          0 USEFUL:          0 USELESS:          0
cpu0_DTLB AVERAGE MISS LATENCY: 42.34 cycles
cpu0_ITLB TOTAL        ACCESS:          0 HIT:          0 MISS:          0
cpu0_ITLB LOAD         ACCESS:          0 HIT:          0 MISS:          0
cpu0_ITLB RFO          ACCESS:          0 HIT:          0 MISS:          0
cpu0_ITLB PREFETCH     ACCESS:          0 HIT:          0 MISS:          0
cpu0_ITLB WRITE        ACCESS:          0 HIT:          0 MISS:          0
cpu0_ITLB TRANSLATION  ACCESS:          0 HIT:          0 MISS:          0
cpu0_ITLB PREFETCH REQUESTED:          0 ISSUED:          0 USEFUL:          0 USELESS:          0
cpu0_ITLB AVERAGE MISS LATENCY: -nan cycles
cpu0_L1D TOTAL        ACCESS:   15832441 HIT:    5904267 MISS:    9928174
cpu0_L1D LOAD         ACCESS:    7478000 HIT:    2762120 MISS:    4715880
cpu0_L1D RFO          ACCESS:          0 HIT:          0 MISS:          0
cpu0_L1D PREFETCH     ACCESS:    6789681 HIT:    2037966 MISS:    4751715
cpu0_L1D WRITE        ACCESS:    1159819 HIT:    1075230 MISS:      84589
cpu0_L1D TRANSLATION  ACCESS:     404941 HIT:      28951 MISS:     375990
cpu0_L1D PREFETCH REQUESTED:    9629135 ISSUED:    6789673 USEFUL:     204802 USELESS:    2550026
cpu0_L1D AVERAGE MISS LATENCY: 191.6 cycles
cpu0_L1I TOTAL        ACCESS:          0 HIT:          0 MISS:          0
cpu0_L1I LOAD         ACCESS:          0 HIT:          0 MISS:          0
cpu0_L1I RFO          ACCESS:          0 HIT:          0 MISS:          0
cpu0_L1I PREFETCH     ACCESS:          0 HIT:          0 MISS:          0
cpu0_L1I WRITE        ACCESS:          0 HIT:          0 MISS:          0
cpu0_L1I TRANSLATION  ACCESS:          0 HIT:          0 MISS:          0
cpu0_L1I PREFETCH REQUESTED:          0 ISSUED:          0 USEFUL:          0 USELESS:          0
cpu0_L1I AVERAGE MISS LATENCY: -nan cycles
cpu0_L2C TOTAL        ACCESS:    7018629 HIT:    1994013 MISS:    5024616
cpu0_L2C LOAD         ACCESS:    3230509 HIT:     898814 MISS:    2331695
cpu0_L2C RFO          ACCESS:      64378 HIT:      19759 MISS:      44619
cpu0_L2C PREFETCH     ACCESS:    2766357 HIT:     419886 MISS:    2346471
cpu0_L2C WRITE        ACCESS:     581750 HIT:     581709 MISS:         41
cpu0_L2C TRANSLATION  ACCESS:     375635 HIT:      73845 MISS:     301790
cpu0_L2C PREFETCH REQUESTED:      11321 ISSUED:      11321 USEFUL:       1290 USELESS:       2756
cpu0_L2C AVERAGE MISS LATENCY: 371.8 cycles
cpu0_STLB TOTAL        ACCESS:    2614373 HIT:    2321216 MISS:     293157
cpu0_STLB LOAD         ACCESS:    2614373 HIT:    2321216 MISS:     293157
cpu0_STLB RFO          ACCESS:          0 HIT:          0 MISS:          0
cpu0_STLB PREFETCH     ACCESS:          0 HIT:          0 MISS:          0
cpu0_STLB WRITE        ACCESS:          0 HIT:          0 MISS:          0
cpu0_STLB TRANSLATION  ACCESS:          0 HIT:          0 MISS:          0
cpu0_STLB PREFETCH REQUESTED:          0 ISSUED:          0 USEFUL:          0 USELESS:          0
cpu0_STLB AVERAGE MISS LATENCY: 463.1 cycles

DRAM Statistics

Channel 0 RQ ROW_BUFFER_HIT:     122286
  ROW_BUFFER_MISS:    2987871
 AVG DBUS CONGESTED CYCLE: 3.957
WQ ROW_BUFFER_HIT: Channel 0 
  ROW_BUFFER_MISS:       5268
  FULL:     371228
