WARNING: physical memory size is smaller than virtual memory size.

*** ChampSim Multicore Out-of-Order Simulator ***
Warmup Instructions: 25000000
Simulation Instructions: 25000000
Number of CPUs: 1
Page size: 4096

Off-chip DRAM Size: 4 GiB Channels: 1 Width: 64-bit Data Race: 800 MT/s
Heartbeat CPU 0 instructions: 10000000 cycles: 2521924 heartbeat IPC: 3.965 cumulative IPC: 3.965 (Simulation time: 00 hr 00 min 50 sec)
Heartbeat CPU 0 instructions: 20000000 cycles: 5043741 heartbeat IPC: 3.965 cumulative IPC: 3.965 (Simulation time: 00 hr 01 min 42 sec)
Warmup finished CPU 0 instructions: 25000000 cycles: 6309075 cumulative IPC: 3.963 (Simulation time: 00 hr 02 min 09 sec)
Warmup complete CPU 0 instructions: 25000000 cycles: 6309075 cumulative IPC: 3.963 (Simulation time: 00 hr 02 min 09 sec)
Heartbeat CPU 0 instructions: 30000003 cycles: 73671434 heartbeat IPC: 0.1457 cumulative IPC: 0.07423 (Simulation time: 00 hr 08 min 17 sec)
Heartbeat CPU 0 instructions: 40000000 cycles: 223659416 heartbeat IPC: 0.06667 cumulative IPC: 0.06901 (Simulation time: 00 hr 17 min 25 sec)
Heartbeat CPU 0 instructions: 50000000 cycles: 365517619 heartbeat IPC: 0.07049 cumulative IPC: 0.0696 (Simulation time: 00 hr 21 min 47 sec)
Simulation finished CPU 0 instructions: 25000000 cycles: 359208545 cumulative IPC: 0.0696 (Simulation time: 00 hr 21 min 47 sec)
Simulation complete CPU 0 instructions: 25000000 cycles: 359208545 cumulative IPC: 0.0696 (Simulation time: 00 hr 21 min 47 sec)

ChampSim completed all CPUs

=== Simulation ===
CPU 0 runs ./traces/mcf_158B.trace.xz
Region of Interest Statistics

CPU 0 cumulative IPC: 0.0696 instructions: 25000000 cycles: 359208545
CPU 0 Branch Prediction Accuracy: 82.21% MPKI: 49.39 Average ROB Occupancy at Mispredict: 13.17
Branch type MPKI
BRANCH_DIRECT_JUMP: 1.13
BRANCH_INDIRECT: 0
BRANCH_CONDITIONAL: 48.3
BRANCH_DIRECT_CALL: 0
BRANCH_INDIRECT_CALL: 0
BRANCH_RETURN: 0

LLC TOTAL        ACCESS:    3340832 HIT:    1085411 MISS:    2255421
LLC LOAD         ACCESS:    2587634 HIT:     735059 MISS:    1852575
LLC RFO          ACCESS:      41568 HIT:      10312 MISS:      31256
LLC PREFETCH     ACCESS:          0 HIT:          0 MISS:          0
LLC WRITE        ACCESS:     425499 HIT:     293778 MISS:     131721
LLC TRANSLATION  ACCESS:     286131 HIT:      46262 MISS:     239869
LLC PREFETCH REQUESTED:          0 ISSUED:          0 USEFUL:          0 USELESS:          0
LLC AVERAGE MISS LATENCY: 404.7 cycles
cpu0_DTLB TOTAL        ACCESS:    7726501 HIT:    4080855 MISS:    3645646
cpu0_DTLB LOAD         ACCESS:    7726501 HIT:    4080855 MISS:    3645646
cpu0_DTLB RFO          ACCESS:          0 HIT:          0 MISS:          0
cpu0_DTLB PREFETCH     ACCESS:          0 HIT:          0 MISS:          0
cpu0_DTLB WRITE        ACCESS:          0 HIT:          0 MISS:          0
cpu0_DTLB TRANSLATION  ACCESS:          0 HIT:          0 MISS:          0
cpu0_DTLB PREFETCH REQUESTED:          0 ISSUED:          0 USEFUL:          0 USELESS:          0
cpu0_DTLB AVERAGE MISS LATENCY: 38.64 cycles
cpu0_ITLB TOTAL        ACCESS:          0 HIT:          0 MISS:          0
cpu0_ITLB LOAD         ACCESS:          0 HIT:          0 MISS:          0
cpu0_ITLB RFO          ACCESS:          0 HIT:          0 MISS:          0
cpu0_ITLB PREFETCH     ACCESS:          0 HIT:          0 MISS:          0
cpu0_ITLB WRITE        ACCESS:          0 HIT:          0 MISS:          0
cpu0_ITLB TRANSLATION  ACCESS:          0 HIT:          0 MISS:          0
cpu0_ITLB PREFETCH REQUESTED:          0 ISSUED:          0 USEFUL:          0 USELESS:          0
cpu0_ITLB AVERAGE MISS LATENCY: -nan cycles
cpu0_L1D TOTAL        ACCESS:    9070705 HIT:    3826652 MISS:    5244053
cpu0_L1D LOAD         ACCESS:    7505091 HIT:    2703708 MISS:    4801383
cpu0_L1D RFO          ACCESS:          0 HIT:          0 MISS:          0
cpu0_L1D PREFETCH     ACCESS:          0 HIT:          0 MISS:          0
cpu0_L1D WRITE        ACCESS:    1160829 HIT:    1082904 MISS:      77925
cpu0_L1D TRANSLATION  ACCESS:     404785 HIT:      40040 MISS:     364745
cpu0_L1D PREFETCH REQUESTED:          0 ISSUED:          0 USEFUL:          0 USELESS:          0
cpu0_L1D AVERAGE MISS LATENCY: 193 cycles
cpu0_L1I TOTAL        ACCESS:          0 HIT:          0 MISS:          0
cpu0_L1I LOAD         ACCESS:          0 HIT:          0 MISS:          0
cpu0_L1I RFO          ACCESS:          0 HIT:          0 MISS:          0
cpu0_L1I PREFETCH     ACCESS:          0 HIT:          0 MISS:          0
cpu0_L1I WRITE        ACCESS:          0 HIT:          0 MISS:          0
cpu0_L1I TRANSLATION  ACCESS:          0 HIT:          0 MISS:          0
cpu0_L1I PREFETCH REQUESTED:          0 ISSUED:          0 USEFUL:          0 USELESS:          0
cpu0_L1I AVERAGE MISS LATENCY: -nan cycles
cpu0_L2C TOTAL        ACCESS:    4370722 HIT:    1455361 MISS:    2915361
cpu0_L2C LOAD         ACCESS:    3371386 HIT:     783751 MISS:    2587635
cpu0_L2C RFO          ACCESS:      61911 HIT:      20343 MISS:      41568
cpu0_L2C PREFETCH     ACCESS:          0 HIT:          0 MISS:          0
cpu0_L2C WRITE        ACCESS:     572934 HIT:     572907 MISS:         27
cpu0_L2C TRANSLATION  ACCESS:     364491 HIT:      78360 MISS:     286131
cpu0_L2C PREFETCH REQUESTED:          0 ISSUED:          0 USEFUL:          0 USELESS:          0
cpu0_L2C AVERAGE MISS LATENCY: 333.9 cycles
cpu0_STLB TOTAL        ACCESS:    2614906 HIT:    2321756 MISS:     293150
cpu0_STLB LOAD         ACCESS:    2614906 HIT:    2321756 MISS:     293150
cpu0_STLB RFO          ACCESS:          0 HIT:          0 MISS:          0
cpu0_STLB PREFETCH     ACCESS:          0 HIT:          0 MISS:          0
cpu0_STLB WRITE        ACCESS:          0 HIT:          0 MISS:          0
cpu0_STLB TRANSLATION  ACCESS:          0 HIT:          0 MISS:          0
cpu0_STLB PREFETCH REQUESTED:          0 ISSUED:          0 USEFUL:          0 USELESS:          0
cpu0_STLB AVERAGE MISS LATENCY: 416.4 cycles

DRAM Statistics

Channel 0 RQ ROW_BUFFER_HIT:      51917
  ROW_BUFFER_MISS:    2071379
 AVG DBUS CONGESTED CYCLE: 3.94
WQ ROW_BUFFER_HIT: Channel 0 
  ROW_BUFFER_MISS:      11659
  FULL:     357042
