WARNING: physical memory size is smaller than virtual memory size.

*** ChampSim Multicore Out-of-Order Simulator ***
Warmup Instructions: 25000000
Simulation Instructions: 25000000
Number of CPUs: 1
Page size: 4096

Off-chip DRAM Size: 4 GiB Channels: 1 Width: 64-bit Data Race: 800 MT/s
Heartbeat CPU 0 instructions: 10000002 cycles: 2500079 heartbeat IPC: 4 cumulative IPC: 4 (Simulation time: 00 hr 00 min 58 sec)
Heartbeat CPU 0 instructions: 20000002 cycles: 5000079 heartbeat IPC: 4 cumulative IPC: 4 (Simulation time: 00 hr 01 min 54 sec)
Warmup finished CPU 0 instructions: 25000002 cycles: 6250080 cumulative IPC: 4 (Simulation time: 00 hr 02 min 25 sec)
Warmup complete CPU 0 instructions: 25000002 cycles: 6250080 cumulative IPC: 4 (Simulation time: 00 hr 02 min 25 sec)
Heartbeat CPU 0 instructions: 30000000 cycles: 13705948 heartbeat IPC: 1.149 cumulative IPC: 0.6706 (Simulation time: 00 hr 04 min 08 sec)
Heartbeat CPU 0 instructions: 40000003 cycles: 29007337 heartbeat IPC: 0.6535 cumulative IPC: 0.6591 (Simulation time: 00 hr 07 min 31 sec)
Heartbeat CPU 0 instructions: 50000002 cycles: 44318441 heartbeat IPC: 0.6531 cumulative IPC: 0.6567 (Simulation time: 00 hr 10 min 44 sec)
Simulation finished CPU 0 instructions: 25000000 cycles: 38068362 cumulative IPC: 0.6567 (Simulation time: 00 hr 10 min 44 sec)
Simulation complete CPU 0 instructions: 25000000 cycles: 38068362 cumulative IPC: 0.6567 (Simulation time: 00 hr 10 min 44 sec)

ChampSim completed all CPUs

=== Simulation ===
CPU 0 runs ./traces/milc_744B.trace.xz
Region of Interest Statistics

CPU 0 cumulative IPC: 0.6567 instructions: 25000000 cycles: 38068362
CPU 0 Branch Prediction Accuracy: 85.71% MPKI: 2.288 Average ROB Occupancy at Mispredict: 352
Branch type MPKI
BRANCH_DIRECT_JUMP: 0
BRANCH_INDIRECT: 0
BRANCH_CONDITIONAL: 2.29
BRANCH_DIRECT_CALL: 0
BRANCH_INDIRECT_CALL: 0
BRANCH_RETURN: 0

LLC TOTAL        ACCESS:     569735 HIT:      85389 MISS:     484346
LLC LOAD         ACCESS:     268870 HIT:          0 MISS:     268870
LLC RFO          ACCESS:          0 HIT:          0 MISS:          0
LLC PREFETCH     ACCESS:     214226 HIT:         36 MISS:     214190
LLC WRITE        ACCESS:      85124 HIT:      84239 MISS:        885
LLC TRANSLATION  ACCESS:       1515 HIT:       1114 MISS:        401
LLC PREFETCH REQUESTED:          0 ISSUED:          0 USEFUL:          0 USELESS:          0
LLC AVERAGE MISS LATENCY: 448.1 cycles
cpu0_DTLB TOTAL        ACCESS:    4348695 HIT:    3890954 MISS:     457741
cpu0_DTLB LOAD         ACCESS:    4348695 HIT:    3890954 MISS:     457741
cpu0_DTLB RFO          ACCESS:          0 HIT:          0 MISS:          0
cpu0_DTLB PREFETCH     ACCESS:          0 HIT:          0 MISS:          0
cpu0_DTLB WRITE        ACCESS:          0 HIT:          0 MISS:          0
cpu0_DTLB TRANSLATION  ACCESS:          0 HIT:          0 MISS:          0
cpu0_DTLB PREFETCH REQUESTED:          0 ISSUED:          0 USEFUL:          0 USELESS:          0
cpu0_DTLB AVERAGE MISS LATENCY: 12.57 cycles
cpu0_ITLB TOTAL        ACCESS:          0 HIT:          0 MISS:          0
cpu0_ITLB LOAD         ACCESS:          0 HIT:          0 MISS:          0
cpu0_ITLB RFO          ACCESS:          0 HIT:          0 MISS:          0
cpu0_ITLB PREFETCH     ACCESS:          0 HIT:          0 MISS:          0
cpu0_ITLB WRITE        ACCESS:          0 HIT:          0 MISS:          0
cpu0_ITLB TRANSLATION  ACCESS:          0 HIT:          0 MISS:          0
cpu0_ITLB PREFETCH REQUESTED:          0 ISSUED:          0 USEFUL:          0 USELESS:          0
cpu0_ITLB AVERAGE MISS LATENCY: -nan cycles
cpu0_L1D TOTAL        ACCESS:    8277478 HIT:    4054315 MISS:    4223163
cpu0_L1D LOAD         ACCESS:    4024539 HIT:    1367542 MISS:    2656997
cpu0_L1D RFO          ACCESS:          0 HIT:          0 MISS:          0
cpu0_L1D PREFETCH     ACCESS:    2591182 HIT:    1027400 MISS:    1563782
cpu0_L1D WRITE        ACCESS:    1628944 HIT:    1628944 MISS:          0
cpu0_L1D TRANSLATION  ACCESS:      32813 HIT:      30429 MISS:       2384
cpu0_L1D PREFETCH REQUESTED:    4024539 ISSUED:    2591173 USEFUL:      31408 USELESS:      90255
cpu0_L1D AVERAGE MISS LATENCY: 33.67 cycles
cpu0_L1I TOTAL        ACCESS:          0 HIT:          0 MISS:          0
cpu0_L1I LOAD         ACCESS:          0 HIT:          0 MISS:          0
cpu0_L1I RFO          ACCESS:          0 HIT:          0 MISS:          0
cpu0_L1I PREFETCH     ACCESS:          0 HIT:          0 MISS:          0
cpu0_L1I WRITE        ACCESS:          0 HIT:          0 MISS:          0
cpu0_L1I TRANSLATION  ACCESS:          0 HIT:          0 MISS:          0
cpu0_L1I PREFETCH REQUESTED:          0 ISSUED:          0 USEFUL:          0 USELESS:          0
cpu0_L1I AVERAGE MISS LATENCY: -nan cycles
cpu0_L2C TOTAL        ACCESS:     682215 HIT:     193944 MISS:     488271
cpu0_L2C LOAD         ACCESS:     318987 HIT:      50115 MISS:     268872
cpu0_L2C RFO          ACCESS:          0 HIT:          0 MISS:          0
cpu0_L2C PREFETCH     ACCESS:     275146 HIT:      60904 MISS:     214242
cpu0_L2C WRITE        ACCESS:      85735 HIT:      82093 MISS:       3642
cpu0_L2C TRANSLATION  ACCESS:       2347 HIT:        832 MISS:       1515
cpu0_L2C PREFETCH REQUESTED:     153565 ISSUED:     153565 USEFUL:      50909 USELESS:      42762
cpu0_L2C AVERAGE MISS LATENCY: 465.3 cycles
cpu0_STLB TOTAL        ACCESS:      33518 HIT:        771 MISS:      32747
cpu0_STLB LOAD         ACCESS:      33518 HIT:        771 MISS:      32747
cpu0_STLB RFO          ACCESS:          0 HIT:          0 MISS:          0
cpu0_STLB PREFETCH     ACCESS:          0 HIT:          0 MISS:          0
cpu0_STLB WRITE        ACCESS:          0 HIT:          0 MISS:          0
cpu0_STLB TRANSLATION  ACCESS:          0 HIT:          0 MISS:          0
cpu0_STLB PREFETCH REQUESTED:          0 ISSUED:          0 USEFUL:          0 USELESS:          0
cpu0_STLB AVERAGE MISS LATENCY: 214 cycles

DRAM Statistics

Channel 0 RQ ROW_BUFFER_HIT:     204169
  ROW_BUFFER_MISS:     279288
 AVG DBUS CONGESTED CYCLE: 3.885
WQ ROW_BUFFER_HIT: Channel 0 
  ROW_BUFFER_MISS:       1239
  FULL:      82267
