WARNING: physical memory size is smaller than virtual memory size.

*** ChampSim Multicore Out-of-Order Simulator ***
Warmup Instructions: 25000000
Simulation Instructions: 25000000
Number of CPUs: 1
Page size: 4096

Off-chip DRAM Size: 4 GiB Channels: 1 Width: 64-bit Data Race: 800 MT/s
Heartbeat CPU 0 instructions: 10000000 cycles: 2514523 heartbeat IPC: 3.977 cumulative IPC: 3.977 (Simulation time: 00 hr 00 min 41 sec)
Heartbeat CPU 0 instructions: 20000000 cycles: 5030732 heartbeat IPC: 3.974 cumulative IPC: 3.976 (Simulation time: 00 hr 01 min 23 sec)
Warmup finished CPU 0 instructions: 25000000 cycles: 6288030 cumulative IPC: 3.976 (Simulation time: 00 hr 01 min 44 sec)
Warmup complete CPU 0 instructions: 25000000 cycles: 6288030 cumulative IPC: 3.976 (Simulation time: 00 hr 01 min 44 sec)
Heartbeat CPU 0 instructions: 30000002 cycles: 21881166 heartbeat IPC: 0.5935 cumulative IPC: 0.3207 (Simulation time: 00 hr 03 min 25 sec)
Heartbeat CPU 0 instructions: 40000002 cycles: 53350864 heartbeat IPC: 0.3178 cumulative IPC: 0.3187 (Simulation time: 00 hr 06 min 45 sec)
Heartbeat CPU 0 instructions: 50000001 cycles: 80192094 heartbeat IPC: 0.3726 cumulative IPC: 0.3383 (Simulation time: 00 hr 09 min 23 sec)
Simulation finished CPU 0 instructions: 25000001 cycles: 73904065 cumulative IPC: 0.3383 (Simulation time: 00 hr 09 min 23 sec)
Simulation complete CPU 0 instructions: 25000001 cycles: 73904065 cumulative IPC: 0.3383 (Simulation time: 00 hr 09 min 23 sec)

ChampSim completed all CPUs

=== Simulation ===
CPU 0 runs ./traces/omnetpp_340B.trace.xz
Region of Interest Statistics

CPU 0 cumulative IPC: 0.3383 instructions: 25000001 cycles: 73904065
CPU 0 Branch Prediction Accuracy: 92.7% MPKI: 17.4 Average ROB Occupancy at Mispredict: 52.43
Branch type MPKI
BRANCH_DIRECT_JUMP: 0.00016
BRANCH_INDIRECT: 0.0548
BRANCH_CONDITIONAL: 17.3
BRANCH_DIRECT_CALL: 4e-05
BRANCH_INDIRECT_CALL: 0.063
BRANCH_RETURN: 0.0296

LLC TOTAL        ACCESS:     859962 HIT:     365508 MISS:     494454
LLC LOAD         ACCESS:     475466 HIT:     130731 MISS:     344735
LLC RFO          ACCESS:      76718 HIT:      18174 MISS:      58544
LLC PREFETCH     ACCESS:          0 HIT:          0 MISS:          0
LLC WRITE        ACCESS:     232691 HIT:     196585 MISS:      36106
LLC TRANSLATION  ACCESS:      75087 HIT:      20018 MISS:      55069
LLC PREFETCH REQUESTED:          0 ISSUED:          0 USEFUL:          0 USELESS:          0
LLC AVERAGE MISS LATENCY: 314.6 cycles
cpu0_DTLB TOTAL        ACCESS:    7685013 HIT:    7044461 MISS:     640552
cpu0_DTLB LOAD         ACCESS:    7685013 HIT:    7044461 MISS:     640552
cpu0_DTLB RFO          ACCESS:          0 HIT:          0 MISS:          0
cpu0_DTLB PREFETCH     ACCESS:          0 HIT:          0 MISS:          0
cpu0_DTLB WRITE        ACCESS:          0 HIT:          0 MISS:          0
cpu0_DTLB TRANSLATION  ACCESS:          0 HIT:          0 MISS:          0
cpu0_DTLB PREFETCH REQUESTED:          0 ISSUED:          0 USEFUL:          0 USELESS:          0
cpu0_DTLB AVERAGE MISS LATENCY: 42.57 cycles
cpu0_ITLB TOTAL        ACCESS:    1067594 HIT:    1065620 MISS:       1974
cpu0_ITLB LOAD         ACCESS:    1067594 HIT:    1065620 MISS:       1974
cpu0_ITLB RFO          ACCESS:          0 HIT:          0 MISS:          0
cpu0_ITLB PREFETCH     ACCESS:          0 HIT:          0 MISS:          0
cpu0_ITLB WRITE        ACCESS:          0 HIT:          0 MISS:          0
cpu0_ITLB TRANSLATION  ACCESS:          0 HIT:          0 MISS:          0
cpu0_ITLB PREFETCH REQUESTED:          0 ISSUED:          0 USEFUL:          0 USELESS:          0
cpu0_ITLB AVERAGE MISS LATENCY: 29.9 cycles
cpu0_L1D TOTAL        ACCESS:    9527774 HIT:    8087675 MISS:    1440099
cpu0_L1D LOAD         ACCESS:    5144905 HIT:    4258521 MISS:     886384
cpu0_L1D RFO          ACCESS:          0 HIT:          0 MISS:          0
cpu0_L1D PREFETCH     ACCESS:          0 HIT:          0 MISS:          0
cpu0_L1D WRITE        ACCESS:    4264231 HIT:    3818704 MISS:     445527
cpu0_L1D TRANSLATION  ACCESS:     118638 HIT:      10450 MISS:     108188
cpu0_L1D PREFETCH REQUESTED:          0 ISSUED:          0 USEFUL:          0 USELESS:          0
cpu0_L1D AVERAGE MISS LATENCY: 119.1 cycles
cpu0_L1I TOTAL        ACCESS:    1148610 HIT:    1145893 MISS:       2717
cpu0_L1I LOAD         ACCESS:    1148610 HIT:    1145893 MISS:       2717
cpu0_L1I RFO          ACCESS:          0 HIT:          0 MISS:          0
cpu0_L1I PREFETCH     ACCESS:          0 HIT:          0 MISS:          0
cpu0_L1I WRITE        ACCESS:          0 HIT:          0 MISS:          0
cpu0_L1I TRANSLATION  ACCESS:          0 HIT:          0 MISS:          0
cpu0_L1I PREFETCH REQUESTED:          0 ISSUED:          0 USEFUL:          0 USELESS:          0
cpu0_L1I AVERAGE MISS LATENCY: 69.86 cycles
cpu0_L2C TOTAL        ACCESS:    1033087 HIT:     404594 MISS:     628493
cpu0_L2C LOAD         ACCESS:     565333 HIT:      89867 MISS:     475466
cpu0_L2C RFO          ACCESS:      86191 HIT:       9473 MISS:      76718
cpu0_L2C PREFETCH     ACCESS:          0 HIT:          0 MISS:          0
cpu0_L2C WRITE        ACCESS:     273681 HIT:     272459 MISS:       1222
cpu0_L2C TRANSLATION  ACCESS:     107882 HIT:      32795 MISS:      75087
cpu0_L2C PREFETCH REQUESTED:          0 ISSUED:          0 USEFUL:          0 USELESS:          0
cpu0_L2C AVERAGE MISS LATENCY: 268.2 cycles
cpu0_STLB TOTAL        ACCESS:     456304 HIT:     342543 MISS:     113761
cpu0_STLB LOAD         ACCESS:     456304 HIT:     342543 MISS:     113761
cpu0_STLB RFO          ACCESS:          0 HIT:          0 MISS:          0
cpu0_STLB PREFETCH     ACCESS:          0 HIT:          0 MISS:          0
cpu0_STLB WRITE        ACCESS:          0 HIT:          0 MISS:          0
cpu0_STLB TRANSLATION  ACCESS:          0 HIT:          0 MISS:          0
cpu0_STLB PREFETCH REQUESTED:          0 ISSUED:          0 USEFUL:          0 USELESS:          0
cpu0_STLB AVERAGE MISS LATENCY: 219 cycles

DRAM Statistics

Channel 0 RQ ROW_BUFFER_HIT:      43648
  ROW_BUFFER_MISS:     414559
 AVG DBUS CONGESTED CYCLE: 3.942
WQ ROW_BUFFER_HIT: Channel 0 
  ROW_BUFFER_MISS:       3821
  FULL:     165014
