WARNING: physical memory size is smaller than virtual memory size.

*** ChampSim Multicore Out-of-Order Simulator ***
Warmup Instructions: 25000000
Simulation Instructions: 25000000
Number of CPUs: 1
Page size: 4096

Off-chip DRAM Size: 4 GiB Channels: 1 Width: 64-bit Data Race: 800 MT/s
Heartbeat CPU 0 instructions: 10000000 cycles: 2578262 heartbeat IPC: 3.879 cumulative IPC: 3.879 (Simulation time: 00 hr 00 min 36 sec)
Heartbeat CPU 0 instructions: 20000003 cycles: 5129274 heartbeat IPC: 3.92 cumulative IPC: 3.899 (Simulation time: 00 hr 01 min 13 sec)
Warmup finished CPU 0 instructions: 25000001 cycles: 6414317 cumulative IPC: 3.898 (Simulation time: 00 hr 01 min 32 sec)
Warmup complete CPU 0 instructions: 25000001 cycles: 6414317 cumulative IPC: 3.898 (Simulation time: 00 hr 01 min 32 sec)
Heartbeat CPU 0 instructions: 30000003 cycles: 21504739 heartbeat IPC: 0.6107 cumulative IPC: 0.3313 (Simulation time: 00 hr 03 min 12 sec)
Heartbeat CPU 0 instructions: 40000003 cycles: 50184136 heartbeat IPC: 0.3487 cumulative IPC: 0.3427 (Simulation time: 00 hr 06 min 16 sec)
Heartbeat CPU 0 instructions: 50000000 cycles: 90536407 heartbeat IPC: 0.2478 cumulative IPC: 0.2972 (Simulation time: 00 hr 09 min 14 sec)
Simulation finished CPU 0 instructions: 25000003 cycles: 84122092 cumulative IPC: 0.2972 (Simulation time: 00 hr 09 min 14 sec)
Simulation complete CPU 0 instructions: 25000003 cycles: 84122092 cumulative IPC: 0.2972 (Simulation time: 00 hr 09 min 14 sec)

ChampSim completed all CPUs

=== Simulation ===
CPU 0 runs ./traces/soplex_66B.trace.xz
Region of Interest Statistics

CPU 0 cumulative IPC: 0.2972 instructions: 25000003 cycles: 84122092
CPU 0 Branch Prediction Accuracy: 92.78% MPKI: 16.43 Average ROB Occupancy at Mispredict: 27.81
Branch type MPKI
BRANCH_DIRECT_JUMP: 0.0549
BRANCH_INDIRECT: 0.00028
BRANCH_CONDITIONAL: 16.4
BRANCH_DIRECT_CALL: 0.0006
BRANCH_INDIRECT_CALL: 0.00036
BRANCH_RETURN: 0.0012

LLC TOTAL        ACCESS:    1318262 HIT:     554567 MISS:     763695
LLC LOAD         ACCESS:     824973 HIT:     292807 MISS:     532166
LLC RFO          ACCESS:     132117 HIT:      39772 MISS:      92345
LLC PREFETCH     ACCESS:          0 HIT:          0 MISS:          0
LLC WRITE        ACCESS:     347242 HIT:     216741 MISS:     130501
LLC TRANSLATION  ACCESS:      13930 HIT:       5247 MISS:       8683
LLC PREFETCH REQUESTED:          0 ISSUED:          0 USEFUL:          0 USELESS:          0
LLC AVERAGE MISS LATENCY: 612 cycles
cpu0_DTLB TOTAL        ACCESS:    5271078 HIT:    5039760 MISS:     231318
cpu0_DTLB LOAD         ACCESS:    5271078 HIT:    5039760 MISS:     231318
cpu0_DTLB RFO          ACCESS:          0 HIT:          0 MISS:          0
cpu0_DTLB PREFETCH     ACCESS:          0 HIT:          0 MISS:          0
cpu0_DTLB WRITE        ACCESS:          0 HIT:          0 MISS:          0
cpu0_DTLB TRANSLATION  ACCESS:          0 HIT:          0 MISS:          0
cpu0_DTLB PREFETCH REQUESTED:          0 ISSUED:          0 USEFUL:          0 USELESS:          0
cpu0_DTLB AVERAGE MISS LATENCY: 34.59 cycles
cpu0_ITLB TOTAL        ACCESS:       1912 HIT:       1896 MISS:         16
cpu0_ITLB LOAD         ACCESS:       1912 HIT:       1896 MISS:         16
cpu0_ITLB RFO          ACCESS:          0 HIT:          0 MISS:          0
cpu0_ITLB PREFETCH     ACCESS:          0 HIT:          0 MISS:          0
cpu0_ITLB WRITE        ACCESS:          0 HIT:          0 MISS:          0
cpu0_ITLB TRANSLATION  ACCESS:          0 HIT:          0 MISS:          0
cpu0_ITLB PREFETCH REQUESTED:          0 ISSUED:          0 USEFUL:          0 USELESS:          0
cpu0_ITLB AVERAGE MISS LATENCY: 490.4 cycles
cpu0_L1D TOTAL        ACCESS:    6075315 HIT:    3372902 MISS:    2702413
cpu0_L1D LOAD         ACCESS:    4248755 HIT:    2179479 MISS:    2069276
cpu0_L1D RFO          ACCESS:          0 HIT:          0 MISS:          0
cpu0_L1D PREFETCH     ACCESS:          0 HIT:          0 MISS:          0
cpu0_L1D WRITE        ACCESS:    1794778 HIT:    1184128 MISS:     610650
cpu0_L1D TRANSLATION  ACCESS:      31782 HIT:       9295 MISS:      22487
cpu0_L1D PREFETCH REQUESTED:          0 ISSUED:          0 USEFUL:          0 USELESS:          0
cpu0_L1D AVERAGE MISS LATENCY: 178.7 cycles
cpu0_L1I TOTAL        ACCESS:       2234 HIT:       1940 MISS:        294
cpu0_L1I LOAD         ACCESS:       2234 HIT:       1940 MISS:        294
cpu0_L1I RFO          ACCESS:          0 HIT:          0 MISS:          0
cpu0_L1I PREFETCH     ACCESS:          0 HIT:          0 MISS:          0
cpu0_L1I WRITE        ACCESS:          0 HIT:          0 MISS:          0
cpu0_L1I TRANSLATION  ACCESS:          0 HIT:          0 MISS:          0
cpu0_L1I PREFETCH REQUESTED:          0 ISSUED:          0 USEFUL:          0 USELESS:          0
cpu0_L1I AVERAGE MISS LATENCY: 402.4 cycles
cpu0_L2C TOTAL        ACCESS:    1552509 HIT:     581253 MISS:     971256
cpu0_L2C LOAD         ACCESS:     959369 HIT:     134396 MISS:     824973
cpu0_L2C RFO          ACCESS:     143615 HIT:      11496 MISS:     132119
cpu0_L2C PREFETCH     ACCESS:          0 HIT:          0 MISS:          0
cpu0_L2C WRITE        ACCESS:     427342 HIT:     427108 MISS:        234
cpu0_L2C TRANSLATION  ACCESS:      22183 HIT:       8253 MISS:      13930
cpu0_L2C PREFETCH REQUESTED:          0 ISSUED:          0 USEFUL:          0 USELESS:          0
cpu0_L2C AVERAGE MISS LATENCY: 501.8 cycles
cpu0_STLB TOTAL        ACCESS:     119071 HIT:      87390 MISS:      31681
cpu0_STLB LOAD         ACCESS:     119071 HIT:      87390 MISS:      31681
cpu0_STLB RFO          ACCESS:          0 HIT:          0 MISS:          0
cpu0_STLB PREFETCH     ACCESS:          0 HIT:          0 MISS:          0
cpu0_STLB WRITE        ACCESS:          0 HIT:          0 MISS:          0
cpu0_STLB TRANSLATION  ACCESS:          0 HIT:          0 MISS:          0
cpu0_STLB PREFETCH REQUESTED:          0 ISSUED:          0 USEFUL:          0 USELESS:          0
cpu0_STLB AVERAGE MISS LATENCY: 268.3 cycles

DRAM Statistics

Channel 0 RQ ROW_BUFFER_HIT:     198356
  ROW_BUFFER_MISS:     434507
 AVG DBUS CONGESTED CYCLE: 3.939
WQ ROW_BUFFER_HIT: Channel 0 
  ROW_BUFFER_MISS:      26194
  FULL:     206852
