WARNING: physical memory size is smaller than virtual memory size.

*** ChampSim Multicore Out-of-Order Simulator ***
Warmup Instructions: 25000000
Simulation Instructions: 25000000
Number of CPUs: 1
Page size: 4096

Off-chip DRAM Size: 4 GiB Channels: 1 Width: 64-bit Data Race: 800 MT/s
Heartbeat CPU 0 instructions: 10000003 cycles: 2576467 heartbeat IPC: 3.881 cumulative IPC: 3.881 (Simulation time: 00 hr 00 min 36 sec)
Heartbeat CPU 0 instructions: 20000001 cycles: 5125101 heartbeat IPC: 3.924 cumulative IPC: 3.902 (Simulation time: 00 hr 01 min 14 sec)
Warmup finished CPU 0 instructions: 25000000 cycles: 6425417 cumulative IPC: 3.891 (Simulation time: 00 hr 01 min 33 sec)
Warmup complete CPU 0 instructions: 25000000 cycles: 6425417 cumulative IPC: 3.891 (Simulation time: 00 hr 01 min 33 sec)
Heartbeat CPU 0 instructions: 30000002 cycles: 25427201 heartbeat IPC: 0.4926 cumulative IPC: 0.2631 (Simulation time: 00 hr 03 min 34 sec)
Heartbeat CPU 0 instructions: 40000000 cycles: 65249049 heartbeat IPC: 0.2511 cumulative IPC: 0.255 (Simulation time: 00 hr 07 min 44 sec)
Heartbeat CPU 0 instructions: 50000002 cycles: 102833467 heartbeat IPC: 0.2661 cumulative IPC: 0.2593 (Simulation time: 00 hr 10 min 19 sec)
Simulation finished CPU 0 instructions: 25000002 cycles: 96408051 cumulative IPC: 0.2593 (Simulation time: 00 hr 10 min 19 sec)
Simulation complete CPU 0 instructions: 25000002 cycles: 96408051 cumulative IPC: 0.2593 (Simulation time: 00 hr 10 min 19 sec)

ChampSim completed all CPUs

=== Simulation ===
CPU 0 runs ./traces/soplex_217B.trace.xz
Region of Interest Statistics

CPU 0 cumulative IPC: 0.2593 instructions: 25000002 cycles: 96408051
CPU 0 Branch Prediction Accuracy: 95.1% MPKI: 11 Average ROB Occupancy at Mispredict: 63.2
Branch type MPKI
BRANCH_DIRECT_JUMP: 0.0653
BRANCH_INDIRECT: 0.00024
BRANCH_CONDITIONAL: 10.9
BRANCH_DIRECT_CALL: 4e-05
BRANCH_INDIRECT_CALL: 0.00044
BRANCH_RETURN: 0.00048

LLC TOTAL        ACCESS:    1745224 HIT:     791570 MISS:     953654
LLC LOAD         ACCESS:    1079631 HIT:     393123 MISS:     686508
LLC RFO          ACCESS:     143258 HIT:      39555 MISS:     103703
LLC PREFETCH     ACCESS:          0 HIT:          0 MISS:          0
LLC WRITE        ACCESS:     509319 HIT:     354914 MISS:     154405
LLC TRANSLATION  ACCESS:      13016 HIT:       3978 MISS:       9038
LLC PREFETCH REQUESTED:          0 ISSUED:          0 USEFUL:          0 USELESS:          0
LLC AVERAGE MISS LATENCY: 665.8 cycles
cpu0_DTLB TOTAL        ACCESS:    5531977 HIT:    5219453 MISS:     312524
cpu0_DTLB LOAD         ACCESS:    5531977 HIT:    5219453 MISS:     312524
cpu0_DTLB RFO          ACCESS:          0 HIT:          0 MISS:          0
cpu0_DTLB PREFETCH     ACCESS:          0 HIT:          0 MISS:          0
cpu0_DTLB WRITE        ACCESS:          0 HIT:          0 MISS:          0
cpu0_DTLB TRANSLATION  ACCESS:          0 HIT:          0 MISS:          0
cpu0_DTLB PREFETCH REQUESTED:          0 ISSUED:          0 USEFUL:          0 USELESS:          0
cpu0_DTLB AVERAGE MISS LATENCY: 27.21 cycles
cpu0_ITLB TOTAL        ACCESS:       1650 HIT:       1650 MISS:          0
cpu0_ITLB LOAD         ACCESS:       1650 HIT:       1650 MISS:          0
cpu0_ITLB RFO          ACCESS:          0 HIT:          0 MISS:          0
cpu0_ITLB PREFETCH     ACCESS:          0 HIT:          0 MISS:          0
cpu0_ITLB WRITE        ACCESS:          0 HIT:          0 MISS:          0
cpu0_ITLB TRANSLATION  ACCESS:          0 HIT:          0 MISS:          0
cpu0_ITLB PREFETCH REQUESTED:          0 ISSUED:          0 USEFUL:          0 USELESS:          0
cpu0_ITLB AVERAGE MISS LATENCY: -nan cycles
cpu0_L1D TOTAL        ACCESS:    6296584 HIT:    2975592 MISS:    3320992
cpu0_L1D LOAD         ACCESS:    4778928 HIT:    1905285 MISS:    2873643
cpu0_L1D RFO          ACCESS:          0 HIT:          0 MISS:          0
cpu0_L1D PREFETCH     ACCESS:          0 HIT:          0 MISS:          0
cpu0_L1D WRITE        ACCESS:    1491494 HIT:    1064319 MISS:     427175
cpu0_L1D TRANSLATION  ACCESS:      26162 HIT:       5988 MISS:      20174
cpu0_L1D PREFETCH REQUESTED:          0 ISSUED:          0 USEFUL:          0 USELESS:          0
cpu0_L1D AVERAGE MISS LATENCY: 198.2 cycles
cpu0_L1I TOTAL        ACCESS:       1968 HIT:       1911 MISS:         57
cpu0_L1I LOAD         ACCESS:       1968 HIT:       1911 MISS:         57
cpu0_L1I RFO          ACCESS:          0 HIT:          0 MISS:          0
cpu0_L1I PREFETCH     ACCESS:          0 HIT:          0 MISS:          0
cpu0_L1I WRITE        ACCESS:          0 HIT:          0 MISS:          0
cpu0_L1I TRANSLATION  ACCESS:          0 HIT:          0 MISS:          0
cpu0_L1I PREFETCH REQUESTED:          0 ISSUED:          0 USEFUL:          0 USELESS:          0
cpu0_L1I AVERAGE MISS LATENCY: 325.1 cycles
cpu0_L2C TOTAL        ACCESS:    2223707 HIT:     987777 MISS:    1235930
cpu0_L2C LOAD         ACCESS:    1351249 HIT:     271618 MISS:    1079631
cpu0_L2C RFO          ACCESS:     158699 HIT:      15441 MISS:     143258
cpu0_L2C PREFETCH     ACCESS:          0 HIT:          0 MISS:          0
cpu0_L2C WRITE        ACCESS:     693766 HIT:     693741 MISS:         25
cpu0_L2C TRANSLATION  ACCESS:      19993 HIT:       6977 MISS:      13016
cpu0_L2C PREFETCH REQUESTED:          0 ISSUED:          0 USEFUL:          0 USELESS:          0
cpu0_L2C AVERAGE MISS LATENCY: 534.4 cycles
cpu0_STLB TOTAL        ACCESS:     158632 HIT:     132594 MISS:      26038
cpu0_STLB LOAD         ACCESS:     158632 HIT:     132594 MISS:      26038
cpu0_STLB RFO          ACCESS:          0 HIT:          0 MISS:          0
cpu0_STLB PREFETCH     ACCESS:          0 HIT:          0 MISS:          0
cpu0_STLB WRITE        ACCESS:          0 HIT:          0 MISS:          0
cpu0_STLB TRANSLATION  ACCESS:          0 HIT:          0 MISS:          0
cpu0_STLB PREFETCH REQUESTED:          0 ISSUED:          0 USEFUL:          0 USELESS:          0
cpu0_STLB AVERAGE MISS LATENCY: 349.5 cycles

DRAM Statistics

Channel 0 RQ ROW_BUFFER_HIT:     223189
  ROW_BUFFER_MISS:     575541
 AVG DBUS CONGESTED CYCLE: 3.938
WQ ROW_BUFFER_HIT: Channel 0 
  ROW_BUFFER_MISS:      20270
  FULL:     275621
