WARNING: physical memory size is smaller than virtual memory size.

*** ChampSim Multicore Out-of-Order Simulator ***
Warmup Instructions: 25000000
Simulation Instructions: 25000000
Number of CPUs: 1
Page size: 4096

Off-chip DRAM Size: 4 GiB Channels: 1 Width: 64-bit Data Race: 800 MT/s
Heartbeat CPU 0 instructions: 10000000 cycles: 2580898 heartbeat IPC: 3.875 cumulative IPC: 3.875 (Simulation time: 00 hr 01 min 05 sec)
Heartbeat CPU 0 instructions: 20000003 cycles: 5136895 heartbeat IPC: 3.912 cumulative IPC: 3.893 (Simulation time: 00 hr 02 min 09 sec)
Warmup finished CPU 0 instructions: 25000001 cycles: 6437791 cumulative IPC: 3.883 (Simulation time: 00 hr 02 min 36 sec)
Warmup complete CPU 0 instructions: 25000001 cycles: 6437791 cumulative IPC: 3.883 (Simulation time: 00 hr 02 min 36 sec)
Heartbeat CPU 0 instructions: 30000001 cycles: 25049646 heartbeat IPC: 0.5022 cumulative IPC: 0.2686 (Simulation time: 00 hr 05 min 17 sec)
Heartbeat CPU 0 instructions: 40000002 cycles: 61257993 heartbeat IPC: 0.2762 cumulative IPC: 0.2736 (Simulation time: 00 hr 10 min 45 sec)
Heartbeat CPU 0 instructions: 50000002 cycles: 96913166 heartbeat IPC: 0.2805 cumulative IPC: 0.2763 (Simulation time: 00 hr 14 min 31 sec)
Simulation finished CPU 0 instructions: 25000001 cycles: 90475376 cumulative IPC: 0.2763 (Simulation time: 00 hr 14 min 31 sec)
Simulation complete CPU 0 instructions: 25000001 cycles: 90475376 cumulative IPC: 0.2763 (Simulation time: 00 hr 14 min 31 sec)

ChampSim completed all CPUs

=== Simulation ===
CPU 0 runs ./traces/soplex_217B.trace.xz
Region of Interest Statistics

CPU 0 cumulative IPC: 0.2763 instructions: 25000001 cycles: 90475376
CPU 0 Branch Prediction Accuracy: 95.1% MPKI: 11 Average ROB Occupancy at Mispredict: 66.48
Branch type MPKI
BRANCH_DIRECT_JUMP: 0.0653
BRANCH_INDIRECT: 0.00024
BRANCH_CONDITIONAL: 10.9
BRANCH_DIRECT_CALL: 4e-05
BRANCH_INDIRECT_CALL: 0.00044
BRANCH_RETURN: 0.00048

LLC TOTAL        ACCESS:    2186236 HIT:    1006622 MISS:    1179614
LLC LOAD         ACCESS:     650721 HIT:     256719 MISS:     394002
LLC RFO          ACCESS:     144274 HIT:      43091 MISS:     101183
LLC PREFETCH     ACCESS:     853597 HIT:     298273 MISS:     555324
LLC WRITE        ACCESS:     523882 HIT:     402737 MISS:     121145
LLC TRANSLATION  ACCESS:      13762 HIT:       5802 MISS:       7960
LLC PREFETCH REQUESTED:          0 ISSUED:          0 USEFUL:          0 USELESS:          0
LLC AVERAGE MISS LATENCY: 779.4 cycles
cpu0_DTLB TOTAL        ACCESS:    5446790 HIT:    5139373 MISS:     307417
cpu0_DTLB LOAD         ACCESS:    5446790 HIT:    5139373 MISS:     307417
cpu0_DTLB RFO          ACCESS:          0 HIT:          0 MISS:          0
cpu0_DTLB PREFETCH     ACCESS:          0 HIT:          0 MISS:          0
cpu0_DTLB WRITE        ACCESS:          0 HIT:          0 MISS:          0
cpu0_DTLB TRANSLATION  ACCESS:          0 HIT:          0 MISS:          0
cpu0_DTLB PREFETCH REQUESTED:          0 ISSUED:          0 USEFUL:          0 USELESS:          0
cpu0_DTLB AVERAGE MISS LATENCY: 29.14 cycles
cpu0_ITLB TOTAL        ACCESS:       1646 HIT:       1646 MISS:          0
cpu0_ITLB LOAD         ACCESS:       1646 HIT:       1646 MISS:          0
cpu0_ITLB RFO          ACCESS:          0 HIT:          0 MISS:          0
cpu0_ITLB PREFETCH     ACCESS:          0 HIT:          0 MISS:          0
cpu0_ITLB WRITE        ACCESS:          0 HIT:          0 MISS:          0
cpu0_ITLB TRANSLATION  ACCESS:          0 HIT:          0 MISS:          0
cpu0_ITLB PREFETCH REQUESTED:          0 ISSUED:          0 USEFUL:          0 USELESS:          0
cpu0_ITLB AVERAGE MISS LATENCY: -nan cycles
cpu0_L1D TOTAL        ACCESS:   10124881 HIT:    5683002 MISS:    4441879
cpu0_L1D LOAD         ACCESS:    4684173 HIT:    2677661 MISS:    2006512
cpu0_L1D RFO          ACCESS:          0 HIT:          0 MISS:          0
cpu0_L1D PREFETCH     ACCESS:    3921376 HIT:    1957076 MISS:    1964300
cpu0_L1D WRITE        ACCESS:    1493196 HIT:    1042989 MISS:     450207
cpu0_L1D TRANSLATION  ACCESS:      26136 HIT:       5276 MISS:      20860
cpu0_L1D PREFETCH REQUESTED:   17970240 ISSUED:    3921378 USEFUL:     356985 USELESS:     380258
cpu0_L1D AVERAGE MISS LATENCY: 183.9 cycles
cpu0_L1I TOTAL        ACCESS:       1972 HIT:       1915 MISS:         57
cpu0_L1I LOAD         ACCESS:       1972 HIT:       1915 MISS:         57
cpu0_L1I RFO          ACCESS:          0 HIT:          0 MISS:          0
cpu0_L1I PREFETCH     ACCESS:          0 HIT:          0 MISS:          0
cpu0_L1I WRITE        ACCESS:          0 HIT:          0 MISS:          0
cpu0_L1I TRANSLATION  ACCESS:          0 HIT:          0 MISS:          0
cpu0_L1I PREFETCH REQUESTED:          0 ISSUED:          0 USEFUL:          0 USELESS:          0
cpu0_L1I AVERAGE MISS LATENCY: 421 cycles
cpu0_L2C TOTAL        ACCESS:    3535287 HIT:    1586666 MISS:    1948621
cpu0_L2C LOAD         ACCESS:    1026691 HIT:     334700 MISS:     691991
cpu0_L2C RFO          ACCESS:     159253 HIT:      14979 MISS:     144274
cpu0_L2C PREFETCH     ACCESS:    1610450 HIT:     511892 MISS:    1098558
cpu0_L2C WRITE        ACCESS:     718193 HIT:     718157 MISS:         36
cpu0_L2C TRANSLATION  ACCESS:      20700 HIT:       6938 MISS:      13762
cpu0_L2C PREFETCH REQUESTED:     880937 ISSUED:     873208 USEFUL:     198789 USELESS:      63540
cpu0_L2C AVERAGE MISS LATENCY: 458.6 cycles
cpu0_STLB TOTAL        ACCESS:     158790 HIT:     132750 MISS:      26040
cpu0_STLB LOAD         ACCESS:     158790 HIT:     132750 MISS:      26040
cpu0_STLB RFO          ACCESS:          0 HIT:          0 MISS:          0
cpu0_STLB PREFETCH     ACCESS:          0 HIT:          0 MISS:          0
cpu0_STLB WRITE        ACCESS:          0 HIT:          0 MISS:          0
cpu0_STLB TRANSLATION  ACCESS:          0 HIT:          0 MISS:          0
cpu0_STLB PREFETCH REQUESTED:          0 ISSUED:          0 USEFUL:          0 USELESS:          0
cpu0_STLB AVERAGE MISS LATENCY: 374.4 cycles

DRAM Statistics

Channel 0 RQ ROW_BUFFER_HIT:     319577
  ROW_BUFFER_MISS:     644501
 AVG DBUS CONGESTED CYCLE: 3.925
WQ ROW_BUFFER_HIT: Channel 0 
  ROW_BUFFER_MISS:      16466
  FULL:     282066
