WARNING: physical memory size is smaller than virtual memory size.

*** ChampSim Multicore Out-of-Order Simulator ***
Warmup Instructions: 25000000
Simulation Instructions: 25000000
Number of CPUs: 1
Page size: 4096

Off-chip DRAM Size: 4 GiB Channels: 1 Width: 64-bit Data Race: 800 MT/s
Heartbeat CPU 0 instructions: 10000000 cycles: 2549321 heartbeat IPC: 3.923 cumulative IPC: 3.923 (Simulation time: 00 hr 00 min 32 sec)
Heartbeat CPU 0 instructions: 20000002 cycles: 5100901 heartbeat IPC: 3.919 cumulative IPC: 3.921 (Simulation time: 00 hr 01 min 03 sec)
Warmup finished CPU 0 instructions: 25000003 cycles: 6387893 cumulative IPC: 3.914 (Simulation time: 00 hr 01 min 19 sec)
Warmup complete CPU 0 instructions: 25000003 cycles: 6387893 cumulative IPC: 3.914 (Simulation time: 00 hr 01 min 19 sec)
Heartbeat CPU 0 instructions: 30000003 cycles: 8519068 heartbeat IPC: 2.926 cumulative IPC: 2.346 (Simulation time: 00 hr 01 min 45 sec)
Heartbeat CPU 0 instructions: 40000001 cycles: 12814884 heartbeat IPC: 2.328 cumulative IPC: 2.334 (Simulation time: 00 hr 02 min 36 sec)
Heartbeat CPU 0 instructions: 50000003 cycles: 17164954 heartbeat IPC: 2.299 cumulative IPC: 2.32 (Simulation time: 00 hr 03 min 27 sec)
Simulation finished CPU 0 instructions: 25000000 cycles: 10777062 cumulative IPC: 2.32 (Simulation time: 00 hr 03 min 27 sec)
Simulation complete CPU 0 instructions: 25000000 cycles: 10777062 cumulative IPC: 2.32 (Simulation time: 00 hr 03 min 27 sec)

ChampSim completed all CPUs

=== Simulation ===
CPU 0 runs ./traces/sphinx3_2520B.trace.xz
Region of Interest Statistics

CPU 0 cumulative IPC: 2.32 instructions: 25000000 cycles: 10777062
CPU 0 Branch Prediction Accuracy: 96.09% MPKI: 3.369 Average ROB Occupancy at Mispredict: 236.1
Branch type MPKI
BRANCH_DIRECT_JUMP: 0.0225
BRANCH_INDIRECT: 0
BRANCH_CONDITIONAL: 3.32
BRANCH_DIRECT_CALL: 0
BRANCH_INDIRECT_CALL: 0
BRANCH_RETURN: 0.0303

LLC TOTAL        ACCESS:     349490 HIT:     301913 MISS:      47577
LLC LOAD         ACCESS:     285352 HIT:     238460 MISS:      46892
LLC RFO          ACCESS:      30321 HIT:      29925 MISS:        396
LLC PREFETCH     ACCESS:          0 HIT:          0 MISS:          0
LLC WRITE        ACCESS:      33723 HIT:      33528 MISS:        195
LLC TRANSLATION  ACCESS:         94 HIT:          0 MISS:         94
LLC PREFETCH REQUESTED:          0 ISSUED:          0 USEFUL:          0 USELESS:          0
LLC AVERAGE MISS LATENCY: 177.8 cycles
cpu0_DTLB TOTAL        ACCESS:    4740489 HIT:    4716520 MISS:      23969
cpu0_DTLB LOAD         ACCESS:    4740489 HIT:    4716520 MISS:      23969
cpu0_DTLB RFO          ACCESS:          0 HIT:          0 MISS:          0
cpu0_DTLB PREFETCH     ACCESS:          0 HIT:          0 MISS:          0
cpu0_DTLB WRITE        ACCESS:          0 HIT:          0 MISS:          0
cpu0_DTLB TRANSLATION  ACCESS:          0 HIT:          0 MISS:          0
cpu0_DTLB PREFETCH REQUESTED:          0 ISSUED:          0 USEFUL:          0 USELESS:          0
cpu0_DTLB AVERAGE MISS LATENCY: 5.305 cycles
cpu0_ITLB TOTAL        ACCESS:       2982 HIT:       2974 MISS:          8
cpu0_ITLB LOAD         ACCESS:       2982 HIT:       2974 MISS:          8
cpu0_ITLB RFO          ACCESS:          0 HIT:          0 MISS:          0
cpu0_ITLB PREFETCH     ACCESS:          0 HIT:          0 MISS:          0
cpu0_ITLB WRITE        ACCESS:          0 HIT:          0 MISS:          0
cpu0_ITLB TRANSLATION  ACCESS:          0 HIT:          0 MISS:          0
cpu0_ITLB PREFETCH REQUESTED:          0 ISSUED:          0 USEFUL:          0 USELESS:          0
cpu0_ITLB AVERAGE MISS LATENCY: 25.25 cycles
cpu0_L1D TOTAL        ACCESS:    5722488 HIT:    3533811 MISS:    2188677
cpu0_L1D LOAD         ACCESS:    5415107 HIT:    3339043 MISS:    2076064
cpu0_L1D RFO          ACCESS:          0 HIT:          0 MISS:          0
cpu0_L1D PREFETCH     ACCESS:          0 HIT:          0 MISS:          0
cpu0_L1D WRITE        ACCESS:     307276 HIT:     194759 MISS:     112517
cpu0_L1D TRANSLATION  ACCESS:        105 HIT:          9 MISS:         96
cpu0_L1D PREFETCH REQUESTED:          0 ISSUED:          0 USEFUL:          0 USELESS:          0
cpu0_L1D AVERAGE MISS LATENCY: 4.267 cycles
cpu0_L1I TOTAL        ACCESS:       3373 HIT:       3285 MISS:         88
cpu0_L1I LOAD         ACCESS:       3373 HIT:       3285 MISS:         88
cpu0_L1I RFO          ACCESS:          0 HIT:          0 MISS:          0
cpu0_L1I PREFETCH     ACCESS:          0 HIT:          0 MISS:          0
cpu0_L1I WRITE        ACCESS:          0 HIT:          0 MISS:          0
cpu0_L1I TRANSLATION  ACCESS:          0 HIT:          0 MISS:          0
cpu0_L1I PREFETCH REQUESTED:          0 ISSUED:          0 USEFUL:          0 USELESS:          0
cpu0_L1I AVERAGE MISS LATENCY: 178.4 cycles
cpu0_L2C TOTAL        ACCESS:     375108 HIT:      59309 MISS:     315799
cpu0_L2C LOAD         ACCESS:     311787 HIT:      26435 MISS:     285352
cpu0_L2C RFO          ACCESS:      30810 HIT:        489 MISS:      30321
cpu0_L2C PREFETCH     ACCESS:          0 HIT:          0 MISS:          0
cpu0_L2C WRITE        ACCESS:      32416 HIT:      32384 MISS:         32
cpu0_L2C TRANSLATION  ACCESS:         95 HIT:          1 MISS:         94
cpu0_L2C PREFETCH REQUESTED:          0 ISSUED:          0 USEFUL:          0 USELESS:          0
cpu0_L2C AVERAGE MISS LATENCY: 46.93 cycles
cpu0_STLB TOTAL        ACCESS:      12575 HIT:      12470 MISS:        105
cpu0_STLB LOAD         ACCESS:      12575 HIT:      12470 MISS:        105
cpu0_STLB RFO          ACCESS:          0 HIT:          0 MISS:          0
cpu0_STLB PREFETCH     ACCESS:          0 HIT:          0 MISS:          0
cpu0_STLB WRITE        ACCESS:          0 HIT:          0 MISS:          0
cpu0_STLB TRANSLATION  ACCESS:          0 HIT:          0 MISS:          0
cpu0_STLB PREFETCH REQUESTED:          0 ISSUED:          0 USEFUL:          0 USELESS:          0
cpu0_STLB AVERAGE MISS LATENCY: 787.4 cycles

DRAM Statistics

Channel 0 RQ ROW_BUFFER_HIT:      33809
  ROW_BUFFER_MISS:      13573
 AVG DBUS CONGESTED CYCLE: 3.639
WQ ROW_BUFFER_HIT: Channel 0 
  ROW_BUFFER_MISS:        343
  FULL:        357
