WARNING: physical memory size is smaller than virtual memory size.

*** ChampSim Multicore Out-of-Order Simulator ***
Warmup Instructions: 25000000
Simulation Instructions: 25000000
Number of CPUs: 1
Page size: 4096

Off-chip DRAM Size: 4 GiB Channels: 1 Width: 64-bit Data Race: 800 MT/s
Heartbeat CPU 0 instructions: 10000003 cycles: 2534913 heartbeat IPC: 3.945 cumulative IPC: 3.945 (Simulation time: 00 hr 00 min 48 sec)
Heartbeat CPU 0 instructions: 20000000 cycles: 5092036 heartbeat IPC: 3.911 cumulative IPC: 3.928 (Simulation time: 00 hr 01 min 31 sec)
Warmup finished CPU 0 instructions: 25000003 cycles: 6369065 cumulative IPC: 3.925 (Simulation time: 00 hr 01 min 53 sec)
Warmup complete CPU 0 instructions: 25000003 cycles: 6369065 cumulative IPC: 3.925 (Simulation time: 00 hr 01 min 53 sec)
Heartbeat CPU 0 instructions: 30000003 cycles: 8832226 heartbeat IPC: 2.674 cumulative IPC: 2.03 (Simulation time: 00 hr 02 min 30 sec)
Heartbeat CPU 0 instructions: 40000002 cycles: 14330946 heartbeat IPC: 1.819 cumulative IPC: 1.884 (Simulation time: 00 hr 03 min 50 sec)
Heartbeat CPU 0 instructions: 50000001 cycles: 19525055 heartbeat IPC: 1.925 cumulative IPC: 1.9 (Simulation time: 00 hr 05 min 07 sec)
Simulation finished CPU 0 instructions: 25000002 cycles: 13155992 cumulative IPC: 1.9 (Simulation time: 00 hr 05 min 07 sec)
Simulation complete CPU 0 instructions: 25000002 cycles: 13155992 cumulative IPC: 1.9 (Simulation time: 00 hr 05 min 07 sec)

ChampSim completed all CPUs

=== Simulation ===
CPU 0 runs ./traces/sphinx3_1339B.trace.xz
Region of Interest Statistics

CPU 0 cumulative IPC: 1.9 instructions: 25000002 cycles: 13155992
CPU 0 Branch Prediction Accuracy: 95.31% MPKI: 4.089 Average ROB Occupancy at Mispredict: 226.9
Branch type MPKI
BRANCH_DIRECT_JUMP: 0.0916
BRANCH_INDIRECT: 0
BRANCH_CONDITIONAL: 3.94
BRANCH_DIRECT_CALL: 0
BRANCH_INDIRECT_CALL: 0
BRANCH_RETURN: 0.0544

LLC TOTAL        ACCESS:     396570 HIT:     255094 MISS:     141476
LLC LOAD         ACCESS:      75774 HIT:      55662 MISS:      20112
LLC RFO          ACCESS:      27405 HIT:      26596 MISS:        809
LLC PREFETCH     ACCESS:     257332 HIT:     138386 MISS:     118946
LLC WRITE        ACCESS:      33183 HIT:      32751 MISS:        432
LLC TRANSLATION  ACCESS:       2876 HIT:       1699 MISS:       1177
LLC PREFETCH REQUESTED:          0 ISSUED:          0 USEFUL:          0 USELESS:          0
LLC AVERAGE MISS LATENCY: 272.9 cycles
cpu0_DTLB TOTAL        ACCESS:    4811317 HIT:    4749651 MISS:      61666
cpu0_DTLB LOAD         ACCESS:    4811317 HIT:    4749651 MISS:      61666
cpu0_DTLB RFO          ACCESS:          0 HIT:          0 MISS:          0
cpu0_DTLB PREFETCH     ACCESS:          0 HIT:          0 MISS:          0
cpu0_DTLB WRITE        ACCESS:          0 HIT:          0 MISS:          0
cpu0_DTLB TRANSLATION  ACCESS:          0 HIT:          0 MISS:          0
cpu0_DTLB PREFETCH REQUESTED:          0 ISSUED:          0 USEFUL:          0 USELESS:          0
cpu0_DTLB AVERAGE MISS LATENCY: 9.331 cycles
cpu0_ITLB TOTAL        ACCESS:       2949 HIT:       2949 MISS:          0
cpu0_ITLB LOAD         ACCESS:       2949 HIT:       2949 MISS:          0
cpu0_ITLB RFO          ACCESS:          0 HIT:          0 MISS:          0
cpu0_ITLB PREFETCH     ACCESS:          0 HIT:          0 MISS:          0
cpu0_ITLB WRITE        ACCESS:          0 HIT:          0 MISS:          0
cpu0_ITLB TRANSLATION  ACCESS:          0 HIT:          0 MISS:          0
cpu0_ITLB PREFETCH REQUESTED:          0 ISSUED:          0 USEFUL:          0 USELESS:          0
cpu0_ITLB AVERAGE MISS LATENCY: -nan cycles
cpu0_L1D TOTAL        ACCESS:    9187104 HIT:    6204586 MISS:    2982518
cpu0_L1D LOAD         ACCESS:    5429915 HIT:    3889189 MISS:    1540726
cpu0_L1D RFO          ACCESS:          0 HIT:          0 MISS:          0
cpu0_L1D PREFETCH     ACCESS:    3377130 HIT:    2041243 MISS:    1335887
cpu0_L1D WRITE        ACCESS:     373207 HIT:     272044 MISS:     101163
cpu0_L1D TRANSLATION  ACCESS:       6852 HIT:       2110 MISS:       4742
cpu0_L1D PREFETCH REQUESTED:    5464411 ISSUED:    3377137 USEFUL:     241700 USELESS:      29126
cpu0_L1D AVERAGE MISS LATENCY: 9.625 cycles
cpu0_L1I TOTAL        ACCESS:       3348 HIT:       3309 MISS:         39
cpu0_L1I LOAD         ACCESS:       3348 HIT:       3309 MISS:         39
cpu0_L1I RFO          ACCESS:          0 HIT:          0 MISS:          0
cpu0_L1I PREFETCH     ACCESS:          0 HIT:          0 MISS:          0
cpu0_L1I WRITE        ACCESS:          0 HIT:          0 MISS:          0
cpu0_L1I TRANSLATION  ACCESS:          0 HIT:          0 MISS:          0
cpu0_L1I PREFETCH REQUESTED:          0 ISSUED:          0 USEFUL:          0 USELESS:          0
cpu0_L1I AVERAGE MISS LATENCY: 78.26 cycles
cpu0_L2C TOTAL        ACCESS:     531373 HIT:     158046 MISS:     373327
cpu0_L2C LOAD         ACCESS:     113695 HIT:      36887 MISS:      76808
cpu0_L2C RFO          ACCESS:      29214 HIT:       1809 MISS:      27405
cpu0_L2C PREFETCH     ACCESS:     350688 HIT:      84582 MISS:     266106
cpu0_L2C WRITE        ACCESS:      33199 HIT:      33067 MISS:        132
cpu0_L2C TRANSLATION  ACCESS:       4577 HIT:       1701 MISS:       2876
cpu0_L2C PREFETCH REQUESTED:      79862 ISSUED:      79862 USEFUL:      15168 USELESS:      10722
cpu0_L2C AVERAGE MISS LATENCY: 122.6 cycles
cpu0_STLB TOTAL        ACCESS:      22086 HIT:      15233 MISS:       6853
cpu0_STLB LOAD         ACCESS:      22086 HIT:      15233 MISS:       6853
cpu0_STLB RFO          ACCESS:          0 HIT:          0 MISS:          0
cpu0_STLB PREFETCH     ACCESS:          0 HIT:          0 MISS:          0
cpu0_STLB WRITE        ACCESS:          0 HIT:          0 MISS:          0
cpu0_STLB TRANSLATION  ACCESS:          0 HIT:          0 MISS:          0
cpu0_STLB PREFETCH REQUESTED:          0 ISSUED:          0 USEFUL:          0 USELESS:          0
cpu0_STLB AVERAGE MISS LATENCY: 98.93 cycles

DRAM Statistics

Channel 0 RQ ROW_BUFFER_HIT:      91506
  ROW_BUFFER_MISS:      49482
 AVG DBUS CONGESTED CYCLE: 3.768
WQ ROW_BUFFER_HIT: Channel 0 
  ROW_BUFFER_MISS:        700
  FULL:       1164
