WARNING: physical memory size is smaller than virtual memory size.

*** ChampSim Multicore Out-of-Order Simulator ***
Warmup Instructions: 25000000
Simulation Instructions: 25000000
Number of CPUs: 1
Page size: 4096

Off-chip DRAM Size: 4 GiB Channels: 1 Width: 64-bit Data Race: 800 MT/s
Heartbeat CPU 0 instructions: 10000002 cycles: 2534881 heartbeat IPC: 3.945 cumulative IPC: 3.945 (Simulation time: 00 hr 00 min 31 sec)
Heartbeat CPU 0 instructions: 20000000 cycles: 5091961 heartbeat IPC: 3.911 cumulative IPC: 3.928 (Simulation time: 00 hr 01 min 03 sec)
Warmup finished CPU 0 instructions: 25000003 cycles: 6368996 cumulative IPC: 3.925 (Simulation time: 00 hr 01 min 19 sec)
Warmup complete CPU 0 instructions: 25000003 cycles: 6368996 cumulative IPC: 3.925 (Simulation time: 00 hr 01 min 19 sec)
Heartbeat CPU 0 instructions: 30000000 cycles: 9168808 heartbeat IPC: 2.453 cumulative IPC: 1.786 (Simulation time: 00 hr 01 min 50 sec)
Heartbeat CPU 0 instructions: 40000002 cycles: 15666159 heartbeat IPC: 1.539 cumulative IPC: 1.613 (Simulation time: 00 hr 02 min 58 sec)
Heartbeat CPU 0 instructions: 50000002 cycles: 21864997 heartbeat IPC: 1.613 cumulative IPC: 1.613 (Simulation time: 00 hr 04 min 02 sec)
Simulation finished CPU 0 instructions: 25000003 cycles: 15496003 cumulative IPC: 1.613 (Simulation time: 00 hr 04 min 02 sec)
Simulation complete CPU 0 instructions: 25000003 cycles: 15496003 cumulative IPC: 1.613 (Simulation time: 00 hr 04 min 02 sec)

ChampSim completed all CPUs

=== Simulation ===
CPU 0 runs ./traces/sphinx3_1339B.trace.xz
Region of Interest Statistics

CPU 0 cumulative IPC: 1.613 instructions: 25000003 cycles: 15496003
CPU 0 Branch Prediction Accuracy: 95.31% MPKI: 4.089 Average ROB Occupancy at Mispredict: 221.5
Branch type MPKI
BRANCH_DIRECT_JUMP: 0.0916
BRANCH_INDIRECT: 0
BRANCH_CONDITIONAL: 3.94
BRANCH_DIRECT_CALL: 0
BRANCH_INDIRECT_CALL: 0
BRANCH_RETURN: 0.0544

LLC TOTAL        ACCESS:     369309 HIT:     265799 MISS:     103510
LLC LOAD         ACCESS:     305970 HIT:     213516 MISS:      92454
LLC RFO          ACCESS:      27477 HIT:      21082 MISS:       6395
LLC PREFETCH     ACCESS:          0 HIT:          0 MISS:          0
LLC WRITE        ACCESS:      33116 HIT:      30792 MISS:       2324
LLC TRANSLATION  ACCESS:       2746 HIT:        409 MISS:       2337
LLC PREFETCH REQUESTED:          0 ISSUED:          0 USEFUL:          0 USELESS:          0
LLC AVERAGE MISS LATENCY: 260.2 cycles
cpu0_DTLB TOTAL        ACCESS:    4806419 HIT:    4744170 MISS:      62249
cpu0_DTLB LOAD         ACCESS:    4806419 HIT:    4744170 MISS:      62249
cpu0_DTLB RFO          ACCESS:          0 HIT:          0 MISS:          0
cpu0_DTLB PREFETCH     ACCESS:          0 HIT:          0 MISS:          0
cpu0_DTLB WRITE        ACCESS:          0 HIT:          0 MISS:          0
cpu0_DTLB TRANSLATION  ACCESS:          0 HIT:          0 MISS:          0
cpu0_DTLB PREFETCH REQUESTED:          0 ISSUED:          0 USEFUL:          0 USELESS:          0
cpu0_DTLB AVERAGE MISS LATENCY: 14.66 cycles
cpu0_ITLB TOTAL        ACCESS:       2949 HIT:       2949 MISS:          0
cpu0_ITLB LOAD         ACCESS:       2949 HIT:       2949 MISS:          0
cpu0_ITLB RFO          ACCESS:          0 HIT:          0 MISS:          0
cpu0_ITLB PREFETCH     ACCESS:          0 HIT:          0 MISS:          0
cpu0_ITLB WRITE        ACCESS:          0 HIT:          0 MISS:          0
cpu0_ITLB TRANSLATION  ACCESS:          0 HIT:          0 MISS:          0
cpu0_ITLB PREFETCH REQUESTED:          0 ISSUED:          0 USEFUL:          0 USELESS:          0
cpu0_ITLB AVERAGE MISS LATENCY: -nan cycles
cpu0_L1D TOTAL        ACCESS:    5828626 HIT:    3513515 MISS:    2315111
cpu0_L1D LOAD         ACCESS:    5448607 HIT:    3242924 MISS:    2205683
cpu0_L1D RFO          ACCESS:          0 HIT:          0 MISS:          0
cpu0_L1D PREFETCH     ACCESS:          0 HIT:          0 MISS:          0
cpu0_L1D WRITE        ACCESS:     373168 HIT:     268319 MISS:     104849
cpu0_L1D TRANSLATION  ACCESS:       6851 HIT:       2272 MISS:       4579
cpu0_L1D PREFETCH REQUESTED:          0 ISSUED:          0 USEFUL:          0 USELESS:          0
cpu0_L1D AVERAGE MISS LATENCY: 10.91 cycles
cpu0_L1I TOTAL        ACCESS:       3348 HIT:       3309 MISS:         39
cpu0_L1I LOAD         ACCESS:       3348 HIT:       3309 MISS:         39
cpu0_L1I RFO          ACCESS:          0 HIT:          0 MISS:          0
cpu0_L1I PREFETCH     ACCESS:          0 HIT:          0 MISS:          0
cpu0_L1I WRITE        ACCESS:          0 HIT:          0 MISS:          0
cpu0_L1I TRANSLATION  ACCESS:          0 HIT:          0 MISS:          0
cpu0_L1I PREFETCH REQUESTED:          0 ISSUED:          0 USEFUL:          0 USELESS:          0
cpu0_L1I AVERAGE MISS LATENCY: 189.2 cycles
cpu0_L2C TOTAL        ACCESS:     418957 HIT:      82664 MISS:     336293
cpu0_L2C LOAD         ACCESS:     352490 HIT:      46519 MISS:     305971
cpu0_L2C RFO          ACCESS:      29119 HIT:       1642 MISS:      27477
cpu0_L2C PREFETCH     ACCESS:          0 HIT:          0 MISS:          0
cpu0_L2C WRITE        ACCESS:      32925 HIT:      32826 MISS:         99
cpu0_L2C TRANSLATION  ACCESS:       4423 HIT:       1677 MISS:       2746
cpu0_L2C PREFETCH REQUESTED:          0 ISSUED:          0 USEFUL:          0 USELESS:          0
cpu0_L2C AVERAGE MISS LATENCY: 100.4 cycles
cpu0_STLB TOTAL        ACCESS:      22109 HIT:      15256 MISS:       6853
cpu0_STLB LOAD         ACCESS:      22109 HIT:      15256 MISS:       6853
cpu0_STLB RFO          ACCESS:          0 HIT:          0 MISS:          0
cpu0_STLB PREFETCH     ACCESS:          0 HIT:          0 MISS:          0
cpu0_STLB WRITE        ACCESS:          0 HIT:          0 MISS:          0
cpu0_STLB TRANSLATION  ACCESS:          0 HIT:          0 MISS:          0
cpu0_STLB PREFETCH REQUESTED:          0 ISSUED:          0 USEFUL:          0 USELESS:          0
cpu0_STLB AVERAGE MISS LATENCY: 165.3 cycles

DRAM Statistics

Channel 0 RQ ROW_BUFFER_HIT:      53766
  ROW_BUFFER_MISS:      47368
 AVG DBUS CONGESTED CYCLE: 3.785
WQ ROW_BUFFER_HIT: Channel 0 
  ROW_BUFFER_MISS:       3538
  FULL:       5014
