WARNING: physical memory size is smaller than virtual memory size.

*** ChampSim Multicore Out-of-Order Simulator ***
Warmup Instructions: 25000000
Simulation Instructions: 25000000
Number of CPUs: 1
Page size: 4096

Off-chip DRAM Size: 4 GiB Channels: 1 Width: 64-bit Data Race: 800 MT/s
Heartbeat CPU 0 instructions: 10000000 cycles: 2500123 heartbeat IPC: 4 cumulative IPC: 4 (Simulation time: 00 hr 00 min 45 sec)
Heartbeat CPU 0 instructions: 20000000 cycles: 5000123 heartbeat IPC: 4 cumulative IPC: 4 (Simulation time: 00 hr 01 min 29 sec)
Warmup finished CPU 0 instructions: 25000000 cycles: 6250124 cumulative IPC: 4 (Simulation time: 00 hr 01 min 50 sec)
Warmup complete CPU 0 instructions: 25000000 cycles: 6250124 cumulative IPC: 4 (Simulation time: 00 hr 01 min 50 sec)
Heartbeat CPU 0 instructions: 30000002 cycles: 8151009 heartbeat IPC: 3.174 cumulative IPC: 2.63 (Simulation time: 00 hr 02 min 21 sec)
Heartbeat CPU 0 instructions: 40000001 cycles: 11956845 heartbeat IPC: 2.628 cumulative IPC: 2.628 (Simulation time: 00 hr 03 min 22 sec)
Heartbeat CPU 0 instructions: 50000000 cycles: 29404994 heartbeat IPC: 0.5731 cumulative IPC: 1.08 (Simulation time: 00 hr 06 min 35 sec)
Simulation finished CPU 0 instructions: 25000000 cycles: 23154871 cumulative IPC: 1.08 (Simulation time: 00 hr 06 min 35 sec)
Simulation complete CPU 0 instructions: 25000000 cycles: 23154871 cumulative IPC: 1.08 (Simulation time: 00 hr 06 min 35 sec)

ChampSim completed all CPUs

=== Simulation ===
CPU 0 runs ./traces/wrf_1650B.trace.xz
Region of Interest Statistics

CPU 0 cumulative IPC: 1.08 instructions: 25000000 cycles: 23154871
CPU 0 Branch Prediction Accuracy: 99.25% MPKI: 0.8252 Average ROB Occupancy at Mispredict: 322.8
Branch type MPKI
BRANCH_DIRECT_JUMP: 0.00136
BRANCH_INDIRECT: 0
BRANCH_CONDITIONAL: 0.823
BRANCH_DIRECT_CALL: 0.00052
BRANCH_INDIRECT_CALL: 0
BRANCH_RETURN: 0.00048

LLC TOTAL        ACCESS:     328523 HIT:     110726 MISS:     217797
LLC LOAD         ACCESS:      42023 HIT:       7118 MISS:      34905
LLC RFO          ACCESS:      72598 HIT:       1014 MISS:      71584
LLC PREFETCH     ACCESS:     116537 HIT:       7231 MISS:     109306
LLC WRITE        ACCESS:      97071 HIT:      95304 MISS:       1767
LLC TRANSLATION  ACCESS:        294 HIT:         59 MISS:        235
LLC PREFETCH REQUESTED:          0 ISSUED:          0 USEFUL:          0 USELESS:          0
LLC AVERAGE MISS LATENCY: 1054 cycles
cpu0_DTLB TOTAL        ACCESS:    4458495 HIT:    4414647 MISS:      43848
cpu0_DTLB LOAD         ACCESS:    4458495 HIT:    4414647 MISS:      43848
cpu0_DTLB RFO          ACCESS:          0 HIT:          0 MISS:          0
cpu0_DTLB PREFETCH     ACCESS:          0 HIT:          0 MISS:          0
cpu0_DTLB WRITE        ACCESS:          0 HIT:          0 MISS:          0
cpu0_DTLB TRANSLATION  ACCESS:          0 HIT:          0 MISS:          0
cpu0_DTLB PREFETCH REQUESTED:          0 ISSUED:          0 USEFUL:          0 USELESS:          0
cpu0_DTLB AVERAGE MISS LATENCY: 39.57 cycles
cpu0_ITLB TOTAL        ACCESS:        508 HIT:        441 MISS:         67
cpu0_ITLB LOAD         ACCESS:        508 HIT:        441 MISS:         67
cpu0_ITLB RFO          ACCESS:          0 HIT:          0 MISS:          0
cpu0_ITLB PREFETCH     ACCESS:          0 HIT:          0 MISS:          0
cpu0_ITLB WRITE        ACCESS:          0 HIT:          0 MISS:          0
cpu0_ITLB TRANSLATION  ACCESS:          0 HIT:          0 MISS:          0
cpu0_ITLB PREFETCH REQUESTED:          0 ISSUED:          0 USEFUL:          0 USELESS:          0
cpu0_ITLB AVERAGE MISS LATENCY: 204.7 cycles
cpu0_L1D TOTAL        ACCESS:    8681463 HIT:    7721140 MISS:     960323
cpu0_L1D LOAD         ACCESS:    4203745 HIT:    3944838 MISS:     258907
cpu0_L1D RFO          ACCESS:          0 HIT:          0 MISS:          0
cpu0_L1D PREFETCH     ACCESS:    3309869 HIT:    3120840 MISS:     189029
cpu0_L1D WRITE        ACCESS:    1163324 HIT:     651736 MISS:     511588
cpu0_L1D TRANSLATION  ACCESS:       4525 HIT:       3726 MISS:        799
cpu0_L1D PREFETCH REQUESTED:    6949627 ISSUED:    3309877 USEFUL:      59828 USELESS:       5231
cpu0_L1D AVERAGE MISS LATENCY: 184.3 cycles
cpu0_L1I TOTAL        ACCESS:        628 HIT:        116 MISS:        512
cpu0_L1I LOAD         ACCESS:        628 HIT:        116 MISS:        512
cpu0_L1I RFO          ACCESS:          0 HIT:          0 MISS:          0
cpu0_L1I PREFETCH     ACCESS:          0 HIT:          0 MISS:          0
cpu0_L1I WRITE        ACCESS:          0 HIT:          0 MISS:          0
cpu0_L1I TRANSLATION  ACCESS:          0 HIT:          0 MISS:          0
cpu0_L1I PREFETCH REQUESTED:          0 ISSUED:          0 USEFUL:          0 USELESS:          0
cpu0_L1I AVERAGE MISS LATENCY: 435.4 cycles
cpu0_L2C TOTAL        ACCESS:     417770 HIT:     122992 MISS:     294778
cpu0_L2C LOAD         ACCESS:      63346 HIT:       8937 MISS:      54409
cpu0_L2C RFO          ACCESS:      73519 HIT:        920 MISS:      72599
cpu0_L2C PREFETCH     ACCESS:     179099 HIT:      11634 MISS:     167465
cpu0_L2C WRITE        ACCESS:     101012 HIT:     101001 MISS:         11
cpu0_L2C TRANSLATION  ACCESS:        794 HIT:        500 MISS:        294
cpu0_L2C PREFETCH REQUESTED:     114173 ISSUED:     114057 USEFUL:      17783 USELESS:      21649
cpu0_L2C AVERAGE MISS LATENCY: 700.8 cycles
cpu0_STLB TOTAL        ACCESS:      16274 HIT:      11771 MISS:       4503
cpu0_STLB LOAD         ACCESS:      16274 HIT:      11771 MISS:       4503
cpu0_STLB RFO          ACCESS:          0 HIT:          0 MISS:          0
cpu0_STLB PREFETCH     ACCESS:          0 HIT:          0 MISS:          0
cpu0_STLB WRITE        ACCESS:          0 HIT:          0 MISS:          0
cpu0_STLB TRANSLATION  ACCESS:          0 HIT:          0 MISS:          0
cpu0_STLB PREFETCH REQUESTED:          0 ISSUED:          0 USEFUL:          0 USELESS:          0
cpu0_STLB AVERAGE MISS LATENCY: 457.9 cycles

DRAM Statistics

Channel 0 RQ ROW_BUFFER_HIT:      60735
  ROW_BUFFER_MISS:     130834
 AVG DBUS CONGESTED CYCLE: 3.953
WQ ROW_BUFFER_HIT: Channel 0 
  ROW_BUFFER_MISS:       6872
  FULL:      73979
