WARNING: physical memory size is smaller than virtual memory size.

*** ChampSim Multicore Out-of-Order Simulator ***
Warmup Instructions: 25000000
Simulation Instructions: 25000000
Number of CPUs: 1
Page size: 4096

Off-chip DRAM Size: 4 GiB Channels: 1 Width: 64-bit Data Race: 800 MT/s
Heartbeat CPU 0 instructions: 10000001 cycles: 2516849 heartbeat IPC: 3.973 cumulative IPC: 3.973 (Simulation time: 00 hr 00 min 37 sec)
Heartbeat CPU 0 instructions: 20000000 cycles: 5148783 heartbeat IPC: 3.799 cumulative IPC: 3.884 (Simulation time: 00 hr 01 min 14 sec)
Warmup finished CPU 0 instructions: 25000001 cycles: 6549892 cumulative IPC: 3.817 (Simulation time: 00 hr 01 min 33 sec)
Warmup complete CPU 0 instructions: 25000001 cycles: 6549892 cumulative IPC: 3.817 (Simulation time: 00 hr 01 min 33 sec)
Heartbeat CPU 0 instructions: 30000000 cycles: 10142529 heartbeat IPC: 2.003 cumulative IPC: 1.392 (Simulation time: 00 hr 02 min 11 sec)
Heartbeat CPU 0 instructions: 40000001 cycles: 17380425 heartbeat IPC: 1.382 cumulative IPC: 1.385 (Simulation time: 00 hr 03 min 23 sec)
Heartbeat CPU 0 instructions: 50000000 cycles: 24555478 heartbeat IPC: 1.394 cumulative IPC: 1.388 (Simulation time: 00 hr 04 min 22 sec)
Simulation finished CPU 0 instructions: 25000003 cycles: 18005588 cumulative IPC: 1.388 (Simulation time: 00 hr 04 min 22 sec)
Simulation complete CPU 0 instructions: 25000003 cycles: 18005588 cumulative IPC: 1.388 (Simulation time: 00 hr 04 min 22 sec)

ChampSim completed all CPUs

=== Simulation ===
CPU 0 runs ./traces/zeusmp_100B.trace.xz
Region of Interest Statistics

CPU 0 cumulative IPC: 1.388 instructions: 25000003 cycles: 18005588
CPU 0 Branch Prediction Accuracy: 99.35% MPKI: 0.3559 Average ROB Occupancy at Mispredict: 313.7
Branch type MPKI
BRANCH_DIRECT_JUMP: 0
BRANCH_INDIRECT: 0
BRANCH_CONDITIONAL: 0.356
BRANCH_DIRECT_CALL: 0
BRANCH_INDIRECT_CALL: 0
BRANCH_RETURN: 0

LLC TOTAL        ACCESS:     203321 HIT:      76066 MISS:     127255
LLC LOAD         ACCESS:     101590 HIT:      25545 MISS:      76045
LLC RFO          ACCESS:      49536 HIT:          0 MISS:      49536
LLC PREFETCH     ACCESS:          0 HIT:          0 MISS:          0
LLC WRITE        ACCESS:      49506 HIT:      49506 MISS:          0
LLC TRANSLATION  ACCESS:       2689 HIT:       1015 MISS:       1674
LLC PREFETCH REQUESTED:          0 ISSUED:          0 USEFUL:          0 USELESS:          0
LLC AVERAGE MISS LATENCY: 1043 cycles
cpu0_DTLB TOTAL        ACCESS:    4666092 HIT:    3562079 MISS:    1104013
cpu0_DTLB LOAD         ACCESS:    4666092 HIT:    3562079 MISS:    1104013
cpu0_DTLB RFO          ACCESS:          0 HIT:          0 MISS:          0
cpu0_DTLB PREFETCH     ACCESS:          0 HIT:          0 MISS:          0
cpu0_DTLB WRITE        ACCESS:          0 HIT:          0 MISS:          0
cpu0_DTLB TRANSLATION  ACCESS:          0 HIT:          0 MISS:          0
cpu0_DTLB PREFETCH REQUESTED:          0 ISSUED:          0 USEFUL:          0 USELESS:          0
cpu0_DTLB AVERAGE MISS LATENCY: 9.978 cycles
cpu0_ITLB TOTAL        ACCESS:          0 HIT:          0 MISS:          0
cpu0_ITLB LOAD         ACCESS:          0 HIT:          0 MISS:          0
cpu0_ITLB RFO          ACCESS:          0 HIT:          0 MISS:          0
cpu0_ITLB PREFETCH     ACCESS:          0 HIT:          0 MISS:          0
cpu0_ITLB WRITE        ACCESS:          0 HIT:          0 MISS:          0
cpu0_ITLB TRANSLATION  ACCESS:          0 HIT:          0 MISS:          0
cpu0_ITLB PREFETCH REQUESTED:          0 ISSUED:          0 USEFUL:          0 USELESS:          0
cpu0_ITLB AVERAGE MISS LATENCY: -nan cycles
cpu0_L1D TOTAL        ACCESS:    5611723 HIT:    4053382 MISS:    1558341
cpu0_L1D LOAD         ACCESS:    3844887 HIT:    2932958 MISS:     911929
cpu0_L1D RFO          ACCESS:          0 HIT:          0 MISS:          0
cpu0_L1D PREFETCH     ACCESS:          0 HIT:          0 MISS:          0
cpu0_L1D WRITE        ACCESS:    1763656 HIT:    1120424 MISS:     643232
cpu0_L1D TRANSLATION  ACCESS:       3180 HIT:          0 MISS:       3180
cpu0_L1D PREFETCH REQUESTED:          0 ISSUED:          0 USEFUL:          0 USELESS:          0
cpu0_L1D AVERAGE MISS LATENCY: 97.06 cycles
cpu0_L1I TOTAL        ACCESS:          0 HIT:          0 MISS:          0
cpu0_L1I LOAD         ACCESS:          0 HIT:          0 MISS:          0
cpu0_L1I RFO          ACCESS:          0 HIT:          0 MISS:          0
cpu0_L1I PREFETCH     ACCESS:          0 HIT:          0 MISS:          0
cpu0_L1I WRITE        ACCESS:          0 HIT:          0 MISS:          0
cpu0_L1I TRANSLATION  ACCESS:          0 HIT:          0 MISS:          0
cpu0_L1I PREFETCH REQUESTED:          0 ISSUED:          0 USEFUL:          0 USELESS:          0
cpu0_L1I AVERAGE MISS LATENCY: -nan cycles
cpu0_L2C TOTAL        ACCESS:    2008184 HIT:    1854368 MISS:     153816
cpu0_L2C LOAD         ACCESS:     896131 HIT:     794540 MISS:     101591
cpu0_L2C RFO          ACCESS:     545308 HIT:     495772 MISS:      49536
cpu0_L2C PREFETCH     ACCESS:          0 HIT:          0 MISS:          0
cpu0_L2C WRITE        ACCESS:     563565 HIT:     563565 MISS:          0
cpu0_L2C TRANSLATION  ACCESS:       3180 HIT:        491 MISS:       2689
cpu0_L2C PREFETCH REQUESTED:          0 ISSUED:          0 USEFUL:          0 USELESS:          0
cpu0_L2C AVERAGE MISS LATENCY: 884 cycles
cpu0_STLB TOTAL        ACCESS:    1046932 HIT:    1044970 MISS:       1962
cpu0_STLB LOAD         ACCESS:    1046932 HIT:    1044970 MISS:       1962
cpu0_STLB RFO          ACCESS:          0 HIT:          0 MISS:          0
cpu0_STLB PREFETCH     ACCESS:          0 HIT:          0 MISS:          0
cpu0_STLB WRITE        ACCESS:          0 HIT:          0 MISS:          0
cpu0_STLB TRANSLATION  ACCESS:          0 HIT:          0 MISS:          0
cpu0_STLB PREFETCH REQUESTED:          0 ISSUED:          0 USEFUL:          0 USELESS:          0
cpu0_STLB AVERAGE MISS LATENCY: 1387 cycles

DRAM Statistics

Channel 0 RQ ROW_BUFFER_HIT:      23539
  ROW_BUFFER_MISS:     103709
 AVG DBUS CONGESTED CYCLE: 3.995
WQ ROW_BUFFER_HIT: Channel 0 
  ROW_BUFFER_MISS:        757
  FULL:      50190
