WARNING: physical memory size is smaller than virtual memory size.

*** ChampSim Multicore Out-of-Order Simulator ***
Warmup Instructions: 25000000
Simulation Instructions: 25000000
Number of CPUs: 1
Page size: 4096

Off-chip DRAM Size: 4 GiB Channels: 1 Width: 64-bit Data Race: 800 MT/s
Heartbeat CPU 0 instructions: 10000001 cycles: 2593224 heartbeat IPC: 3.856 cumulative IPC: 3.856 (Simulation time: 00 hr 00 min 37 sec)
Heartbeat CPU 0 instructions: 20000000 cycles: 5184552 heartbeat IPC: 3.859 cumulative IPC: 3.858 (Simulation time: 00 hr 01 min 12 sec)
Warmup finished CPU 0 instructions: 25000002 cycles: 6468013 cumulative IPC: 3.865 (Simulation time: 00 hr 01 min 29 sec)
Warmup complete CPU 0 instructions: 25000002 cycles: 6468013 cumulative IPC: 3.865 (Simulation time: 00 hr 01 min 29 sec)
Heartbeat CPU 0 instructions: 30000001 cycles: 8737996 heartbeat IPC: 2.814 cumulative IPC: 2.203 (Simulation time: 00 hr 01 min 54 sec)
Heartbeat CPU 0 instructions: 40000000 cycles: 13388746 heartbeat IPC: 2.15 cumulative IPC: 2.167 (Simulation time: 00 hr 02 min 45 sec)
Heartbeat CPU 0 instructions: 50000000 cycles: 18086350 heartbeat IPC: 2.129 cumulative IPC: 2.152 (Simulation time: 00 hr 03 min 36 sec)
Simulation finished CPU 0 instructions: 25000002 cycles: 11618339 cumulative IPC: 2.152 (Simulation time: 00 hr 03 min 36 sec)
Simulation complete CPU 0 instructions: 25000002 cycles: 11618339 cumulative IPC: 2.152 (Simulation time: 00 hr 03 min 36 sec)

ChampSim completed all CPUs

=== Simulation ===
CPU 0 runs ./traces/zeusmp_300B.trace.xz
Region of Interest Statistics

CPU 0 cumulative IPC: 2.152 instructions: 25000002 cycles: 11618339
CPU 0 Branch Prediction Accuracy: 98.82% MPKI: 0.461 Average ROB Occupancy at Mispredict: 214.8
Branch type MPKI
BRANCH_DIRECT_JUMP: 0.0227
BRANCH_INDIRECT: 0
BRANCH_CONDITIONAL: 0.438
BRANCH_DIRECT_CALL: 0
BRANCH_INDIRECT_CALL: 0
BRANCH_RETURN: 0

LLC TOTAL        ACCESS:     155616 HIT:      87591 MISS:      68025
LLC LOAD         ACCESS:      76173 HIT:      27952 MISS:      48221
LLC RFO          ACCESS:      38482 HIT:      19777 MISS:      18705
LLC PREFETCH     ACCESS:          0 HIT:          0 MISS:          0
LLC WRITE        ACCESS:      39485 HIT:      39453 MISS:         32
LLC TRANSLATION  ACCESS:       1476 HIT:        409 MISS:       1067
LLC PREFETCH REQUESTED:          0 ISSUED:          0 USEFUL:          0 USELESS:          0
LLC AVERAGE MISS LATENCY: 546 cycles
cpu0_DTLB TOTAL        ACCESS:    4297829 HIT:    3983300 MISS:     314529
cpu0_DTLB LOAD         ACCESS:    4297829 HIT:    3983300 MISS:     314529
cpu0_DTLB RFO          ACCESS:          0 HIT:          0 MISS:          0
cpu0_DTLB PREFETCH     ACCESS:          0 HIT:          0 MISS:          0
cpu0_DTLB WRITE        ACCESS:          0 HIT:          0 MISS:          0
cpu0_DTLB TRANSLATION  ACCESS:          0 HIT:          0 MISS:          0
cpu0_DTLB PREFETCH REQUESTED:          0 ISSUED:          0 USEFUL:          0 USELESS:          0
cpu0_DTLB AVERAGE MISS LATENCY: 9.567 cycles
cpu0_ITLB TOTAL        ACCESS:      86448 HIT:      86448 MISS:          0
cpu0_ITLB LOAD         ACCESS:      86448 HIT:      86448 MISS:          0
cpu0_ITLB RFO          ACCESS:          0 HIT:          0 MISS:          0
cpu0_ITLB PREFETCH     ACCESS:          0 HIT:          0 MISS:          0
cpu0_ITLB WRITE        ACCESS:          0 HIT:          0 MISS:          0
cpu0_ITLB TRANSLATION  ACCESS:          0 HIT:          0 MISS:          0
cpu0_ITLB PREFETCH REQUESTED:          0 ISSUED:          0 USEFUL:          0 USELESS:          0
cpu0_ITLB AVERAGE MISS LATENCY: -nan cycles
cpu0_L1D TOTAL        ACCESS:    5431384 HIT:    4228478 MISS:    1202906
cpu0_L1D LOAD         ACCESS:    3283780 HIT:    2630668 MISS:     653112
cpu0_L1D RFO          ACCESS:          0 HIT:          0 MISS:          0
cpu0_L1D PREFETCH     ACCESS:          0 HIT:          0 MISS:          0
cpu0_L1D WRITE        ACCESS:    2145573 HIT:    1597792 MISS:     547781
cpu0_L1D TRANSLATION  ACCESS:       2031 HIT:         18 MISS:       2013
cpu0_L1D PREFETCH REQUESTED:          0 ISSUED:          0 USEFUL:          0 USELESS:          0
cpu0_L1D AVERAGE MISS LATENCY: 36.38 cycles
cpu0_L1I TOTAL        ACCESS:     110342 HIT:     110342 MISS:          0
cpu0_L1I LOAD         ACCESS:     110342 HIT:     110342 MISS:          0
cpu0_L1I RFO          ACCESS:          0 HIT:          0 MISS:          0
cpu0_L1I PREFETCH     ACCESS:          0 HIT:          0 MISS:          0
cpu0_L1I WRITE        ACCESS:          0 HIT:          0 MISS:          0
cpu0_L1I TRANSLATION  ACCESS:          0 HIT:          0 MISS:          0
cpu0_L1I PREFETCH REQUESTED:          0 ISSUED:          0 USEFUL:          0 USELESS:          0
cpu0_L1I AVERAGE MISS LATENCY: -nan cycles
cpu0_L2C TOTAL        ACCESS:     882142 HIT:     765976 MISS:     116166
cpu0_L2C LOAD         ACCESS:     507187 HIT:     431014 MISS:      76173
cpu0_L2C RFO          ACCESS:     144157 HIT:     105675 MISS:      38482
cpu0_L2C PREFETCH     ACCESS:          0 HIT:          0 MISS:          0
cpu0_L2C WRITE        ACCESS:     228787 HIT:     228752 MISS:         35
cpu0_L2C TRANSLATION  ACCESS:       2011 HIT:        535 MISS:       1476
cpu0_L2C PREFETCH REQUESTED:          0 ISSUED:          0 USEFUL:          0 USELESS:          0
cpu0_L2C AVERAGE MISS LATENCY: 340.3 cycles
cpu0_STLB TOTAL        ACCESS:     274530 HIT:     272836 MISS:       1694
cpu0_STLB LOAD         ACCESS:     274530 HIT:     272836 MISS:       1694
cpu0_STLB RFO          ACCESS:          0 HIT:          0 MISS:          0
cpu0_STLB PREFETCH     ACCESS:          0 HIT:          0 MISS:          0
cpu0_STLB WRITE        ACCESS:          0 HIT:          0 MISS:          0
cpu0_STLB TRANSLATION  ACCESS:          0 HIT:          0 MISS:          0
cpu0_STLB PREFETCH REQUESTED:          0 ISSUED:          0 USEFUL:          0 USELESS:          0
cpu0_STLB AVERAGE MISS LATENCY: 555.6 cycles

DRAM Statistics

Channel 0 RQ ROW_BUFFER_HIT:      13250
  ROW_BUFFER_MISS:      54742
 AVG DBUS CONGESTED CYCLE: 3.943
WQ ROW_BUFFER_HIT: Channel 0 
  ROW_BUFFER_MISS:       2732
  FULL:      16924
