WARNING: physical memory size is smaller than virtual memory size.

*** ChampSim Multicore Out-of-Order Simulator ***
Warmup Instructions: 25000000
Simulation Instructions: 25000000
Number of CPUs: 1
Page size: 4096

Off-chip DRAM Size: 4 GiB Channels: 1 Width: 64-bit Data Race: 800 MT/s
Heartbeat CPU 0 instructions: 10000001 cycles: 2536554 heartbeat IPC: 3.942 cumulative IPC: 3.942 (Simulation time: 00 hr 00 min 36 sec)
Heartbeat CPU 0 instructions: 20000001 cycles: 5079195 heartbeat IPC: 3.933 cumulative IPC: 3.938 (Simulation time: 00 hr 01 min 11 sec)
Warmup finished CPU 0 instructions: 25000000 cycles: 6354834 cumulative IPC: 3.934 (Simulation time: 00 hr 01 min 27 sec)
Warmup complete CPU 0 instructions: 25000000 cycles: 6354834 cumulative IPC: 3.934 (Simulation time: 00 hr 01 min 27 sec)
Heartbeat CPU 0 instructions: 30000003 cycles: 8181089 heartbeat IPC: 3.224 cumulative IPC: 2.738 (Simulation time: 00 hr 01 min 49 sec)
Heartbeat CPU 0 instructions: 40000000 cycles: 11833851 heartbeat IPC: 2.738 cumulative IPC: 2.738 (Simulation time: 00 hr 02 min 32 sec)
Heartbeat CPU 0 instructions: 50000001 cycles: 15495110 heartbeat IPC: 2.731 cumulative IPC: 2.735 (Simulation time: 00 hr 03 min 15 sec)
Simulation finished CPU 0 instructions: 25000001 cycles: 9140277 cumulative IPC: 2.735 (Simulation time: 00 hr 03 min 15 sec)
Simulation complete CPU 0 instructions: 25000001 cycles: 9140277 cumulative IPC: 2.735 (Simulation time: 00 hr 03 min 15 sec)

ChampSim completed all CPUs

=== Simulation ===
CPU 0 runs ./traces/zeusmp_600B.trace.xz
Region of Interest Statistics

CPU 0 cumulative IPC: 2.735 instructions: 25000001 cycles: 9140277
CPU 0 Branch Prediction Accuracy: 97.56% MPKI: 0.8748 Average ROB Occupancy at Mispredict: 197.3
Branch type MPKI
BRANCH_DIRECT_JUMP: 0
BRANCH_INDIRECT: 0
BRANCH_CONDITIONAL: 0.875
BRANCH_DIRECT_CALL: 0
BRANCH_INDIRECT_CALL: 0
BRANCH_RETURN: 0

LLC TOTAL        ACCESS:      95073 HIT:       1720 MISS:      93353
LLC LOAD         ACCESS:      79226 HIT:        687 MISS:      78539
LLC RFO          ACCESS:          0 HIT:          0 MISS:          0
LLC PREFETCH     ACCESS:          0 HIT:          0 MISS:          0
LLC WRITE        ACCESS:      15798 HIT:       1033 MISS:      14765
LLC TRANSLATION  ACCESS:         49 HIT:          0 MISS:         49
LLC PREFETCH REQUESTED:          0 ISSUED:          0 USEFUL:          0 USELESS:          0
LLC AVERAGE MISS LATENCY: 183 cycles
cpu0_DTLB TOTAL        ACCESS:    4606136 HIT:    4591778 MISS:      14358
cpu0_DTLB LOAD         ACCESS:    4606136 HIT:    4591778 MISS:      14358
cpu0_DTLB RFO          ACCESS:          0 HIT:          0 MISS:          0
cpu0_DTLB PREFETCH     ACCESS:          0 HIT:          0 MISS:          0
cpu0_DTLB WRITE        ACCESS:          0 HIT:          0 MISS:          0
cpu0_DTLB TRANSLATION  ACCESS:          0 HIT:          0 MISS:          0
cpu0_DTLB PREFETCH REQUESTED:          0 ISSUED:          0 USEFUL:          0 USELESS:          0
cpu0_DTLB AVERAGE MISS LATENCY: 8.569 cycles
cpu0_ITLB TOTAL        ACCESS:     150552 HIT:     150552 MISS:          0
cpu0_ITLB LOAD         ACCESS:     150552 HIT:     150552 MISS:          0
cpu0_ITLB RFO          ACCESS:          0 HIT:          0 MISS:          0
cpu0_ITLB PREFETCH     ACCESS:          0 HIT:          0 MISS:          0
cpu0_ITLB WRITE        ACCESS:          0 HIT:          0 MISS:          0
cpu0_ITLB TRANSLATION  ACCESS:          0 HIT:          0 MISS:          0
cpu0_ITLB PREFETCH REQUESTED:          0 ISSUED:          0 USEFUL:          0 USELESS:          0
cpu0_ITLB AVERAGE MISS LATENCY: -nan cycles
cpu0_L1D TOTAL        ACCESS:    5859549 HIT:    5365733 MISS:     493816
cpu0_L1D LOAD         ACCESS:    4055009 HIT:    3570523 MISS:     484486
cpu0_L1D RFO          ACCESS:          0 HIT:          0 MISS:          0
cpu0_L1D PREFETCH     ACCESS:          0 HIT:          0 MISS:          0
cpu0_L1D WRITE        ACCESS:    1803329 HIT:    1795210 MISS:       8119
cpu0_L1D TRANSLATION  ACCESS:       1211 HIT:          0 MISS:       1211
cpu0_L1D PREFETCH REQUESTED:          0 ISSUED:          0 USEFUL:          0 USELESS:          0
cpu0_L1D AVERAGE MISS LATENCY: 32.82 cycles
cpu0_L1I TOTAL        ACCESS:     189324 HIT:     189324 MISS:          0
cpu0_L1I LOAD         ACCESS:     189324 HIT:     189324 MISS:          0
cpu0_L1I RFO          ACCESS:          0 HIT:          0 MISS:          0
cpu0_L1I PREFETCH     ACCESS:          0 HIT:          0 MISS:          0
cpu0_L1I WRITE        ACCESS:          0 HIT:          0 MISS:          0
cpu0_L1I TRANSLATION  ACCESS:          0 HIT:          0 MISS:          0
cpu0_L1I PREFETCH REQUESTED:          0 ISSUED:          0 USEFUL:          0 USELESS:          0
cpu0_L1I AVERAGE MISS LATENCY: -nan cycles
cpu0_L2C TOTAL        ACCESS:     152040 HIT:      72743 MISS:      79297
cpu0_L2C LOAD         ACCESS:     116196 HIT:      36970 MISS:      79226
cpu0_L2C RFO          ACCESS:       4872 HIT:       4872 MISS:          0
cpu0_L2C PREFETCH     ACCESS:          0 HIT:          0 MISS:          0
cpu0_L2C WRITE        ACCESS:      29761 HIT:      29739 MISS:         22
cpu0_L2C TRANSLATION  ACCESS:       1211 HIT:       1162 MISS:         49
cpu0_L2C PREFETCH REQUESTED:          0 ISSUED:          0 USEFUL:          0 USELESS:          0
cpu0_L2C AVERAGE MISS LATENCY: 236.4 cycles
cpu0_STLB TOTAL        ACCESS:       1545 HIT:        335 MISS:       1210
cpu0_STLB LOAD         ACCESS:       1545 HIT:        335 MISS:       1210
cpu0_STLB RFO          ACCESS:          0 HIT:          0 MISS:          0
cpu0_STLB PREFETCH     ACCESS:          0 HIT:          0 MISS:          0
cpu0_STLB WRITE        ACCESS:          0 HIT:          0 MISS:          0
cpu0_STLB TRANSLATION  ACCESS:          0 HIT:          0 MISS:          0
cpu0_STLB PREFETCH REQUESTED:          0 ISSUED:          0 USEFUL:          0 USELESS:          0
cpu0_STLB AVERAGE MISS LATENCY: 215.9 cycles

DRAM Statistics

Channel 0 RQ ROW_BUFFER_HIT:      59329
  ROW_BUFFER_MISS:      19257
 AVG DBUS CONGESTED CYCLE: 3.873
WQ ROW_BUFFER_HIT: Channel 0 
  ROW_BUFFER_MISS:       5786
  FULL:       9017
