WARNING: physical memory size is smaller than virtual memory size.

*** ChampSim Multicore Out-of-Order Simulator ***
Warmup Instructions: 25000000
Simulation Instructions: 25000000
Number of CPUs: 1
Page size: 4096

Initialize Hawkeye state
Off-chip DRAM Size: 4 GiB Channels: 1 Width: 64-bit Data Race: 800 MT/s
Heartbeat CPU 0 instructions: 10000003 cycles: 2500096 heartbeat IPC: 4 cumulative IPC: 4 (Simulation time: 00 hr 00 min 32 sec)
Heartbeat CPU 0 instructions: 20000003 cycles: 5000096 heartbeat IPC: 4 cumulative IPC: 4 (Simulation time: 00 hr 01 min 08 sec)
Warmup finished CPU 0 instructions: 25000003 cycles: 6250097 cumulative IPC: 4 (Simulation time: 00 hr 01 min 26 sec)
Warmup complete CPU 0 instructions: 25000003 cycles: 6250097 cumulative IPC: 4 (Simulation time: 00 hr 01 min 26 sec)
Heartbeat CPU 0 instructions: 30000001 cycles: 16349156 heartbeat IPC: 0.8811 cumulative IPC: 0.4951 (Simulation time: 00 hr 02 min 26 sec)
Heartbeat CPU 0 instructions: 40000001 cycles: 37032404 heartbeat IPC: 0.4835 cumulative IPC: 0.4873 (Simulation time: 00 hr 04 min 37 sec)
Heartbeat CPU 0 instructions: 50000000 cycles: 57221948 heartbeat IPC: 0.4953 cumulative IPC: 0.4905 (Simulation time: 00 hr 06 min 46 sec)
Simulation finished CPU 0 instructions: 25000001 cycles: 50971853 cumulative IPC: 0.4905 (Simulation time: 00 hr 06 min 46 sec)
Simulation complete CPU 0 instructions: 25000001 cycles: 50971853 cumulative IPC: 0.4905 (Simulation time: 00 hr 06 min 46 sec)

ChampSim completed all CPUs

=== Simulation ===
CPU 0 runs ./traces/astar_23B.trace.xz
Region of Interest Statistics

CPU 0 cumulative IPC: 0.4905 instructions: 25000001 cycles: 50971853
CPU 0 Branch Prediction Accuracy: 72.89% MPKI: 51.75 Average ROB Occupancy at Mispredict: 4.944
Branch type MPKI
BRANCH_DIRECT_JUMP: 0
BRANCH_INDIRECT: 0
BRANCH_CONDITIONAL: 51.7
BRANCH_DIRECT_CALL: 0
BRANCH_INDIRECT_CALL: 0
BRANCH_RETURN: 0

LLC TOTAL        ACCESS:    1452084 HIT:    1374063 MISS:      78021
LLC LOAD         ACCESS:     587723 HIT:     543062 MISS:      44661
LLC RFO          ACCESS:      10047 HIT:       9960 MISS:         87
LLC PREFETCH     ACCESS:     616016 HIT:     583543 MISS:      32473
LLC WRITE        ACCESS:     227292 HIT:     227228 MISS:         64
LLC TRANSLATION  ACCESS:      11006 HIT:      10270 MISS:        736
LLC PREFETCH REQUESTED:          0 ISSUED:          0 USEFUL:          0 USELESS:          0
LLC AVERAGE MISS LATENCY: 239 cycles
cpu0_DTLB TOTAL        ACCESS:    7002831 HIT:    6186180 MISS:     816651
cpu0_DTLB LOAD         ACCESS:    7002831 HIT:    6186180 MISS:     816651
cpu0_DTLB RFO          ACCESS:          0 HIT:          0 MISS:          0
cpu0_DTLB PREFETCH     ACCESS:          0 HIT:          0 MISS:          0
cpu0_DTLB WRITE        ACCESS:          0 HIT:          0 MISS:          0
cpu0_DTLB TRANSLATION  ACCESS:          0 HIT:          0 MISS:          0
cpu0_DTLB PREFETCH REQUESTED:          0 ISSUED:          0 USEFUL:          0 USELESS:          0
cpu0_DTLB AVERAGE MISS LATENCY: 8.344 cycles
cpu0_ITLB TOTAL        ACCESS:          0 HIT:          0 MISS:          0
cpu0_ITLB LOAD         ACCESS:          0 HIT:          0 MISS:          0
cpu0_ITLB RFO          ACCESS:          0 HIT:          0 MISS:          0
cpu0_ITLB PREFETCH     ACCESS:          0 HIT:          0 MISS:          0
cpu0_ITLB WRITE        ACCESS:          0 HIT:          0 MISS:          0
cpu0_ITLB TRANSLATION  ACCESS:          0 HIT:          0 MISS:          0
cpu0_ITLB PREFETCH REQUESTED:          0 ISSUED:          0 USEFUL:          0 USELESS:          0
cpu0_ITLB AVERAGE MISS LATENCY: -nan cycles
cpu0_L1D TOTAL        ACCESS:   14379521 HIT:   12265990 MISS:    2113531
cpu0_L1D LOAD         ACCESS:    6605966 HIT:    5641361 MISS:     964605
cpu0_L1D RFO          ACCESS:          0 HIT:          0 MISS:          0
cpu0_L1D PREFETCH     ACCESS:    6461346 HIT:    5356928 MISS:    1104418
cpu0_L1D WRITE        ACCESS:    1070052 HIT:    1047110 MISS:      22942
cpu0_L1D TRANSLATION  ACCESS:     242157 HIT:     220591 MISS:      21566
cpu0_L1D PREFETCH REQUESTED:    6609591 ISSUED:    6461340 USEFUL:      98890 USELESS:     642771
cpu0_L1D AVERAGE MISS LATENCY: 27.77 cycles
cpu0_L1I TOTAL        ACCESS:          0 HIT:          0 MISS:          0
cpu0_L1I LOAD         ACCESS:          0 HIT:          0 MISS:          0
cpu0_L1I RFO          ACCESS:          0 HIT:          0 MISS:          0
cpu0_L1I PREFETCH     ACCESS:          0 HIT:          0 MISS:          0
cpu0_L1I WRITE        ACCESS:          0 HIT:          0 MISS:          0
cpu0_L1I TRANSLATION  ACCESS:          0 HIT:          0 MISS:          0
cpu0_L1I PREFETCH REQUESTED:          0 ISSUED:          0 USEFUL:          0 USELESS:          0
cpu0_L1I AVERAGE MISS LATENCY: -nan cycles
cpu0_L2C TOTAL        ACCESS:    1733422 HIT:     508579 MISS:    1224843
cpu0_L2C LOAD         ACCESS:     685269 HIT:      97546 MISS:     587723
cpu0_L2C RFO          ACCESS:      20310 HIT:      10263 MISS:      10047
cpu0_L2C PREFETCH     ACCESS:     741656 HIT:     125637 MISS:     616019
cpu0_L2C WRITE        ACCESS:     265201 HIT:     265153 MISS:         48
cpu0_L2C TRANSLATION  ACCESS:      20986 HIT:       9980 MISS:      11006
cpu0_L2C PREFETCH REQUESTED:         24 ISSUED:         24 USEFUL:          5 USELESS:         15
cpu0_L2C AVERAGE MISS LATENCY: 35.29 cycles
cpu0_STLB TOTAL        ACCESS:     622301 HIT:     380145 MISS:     242156
cpu0_STLB LOAD         ACCESS:     622301 HIT:     380145 MISS:     242156
cpu0_STLB RFO          ACCESS:          0 HIT:          0 MISS:          0
cpu0_STLB PREFETCH     ACCESS:          0 HIT:          0 MISS:          0
cpu0_STLB WRITE        ACCESS:          0 HIT:          0 MISS:          0
cpu0_STLB TRANSLATION  ACCESS:          0 HIT:          0 MISS:          0
cpu0_STLB PREFETCH REQUESTED:          0 ISSUED:          0 USEFUL:          0 USELESS:          0
cpu0_STLB AVERAGE MISS LATENCY: 9.099 cycles

DRAM Statistics

Channel 0 RQ ROW_BUFFER_HIT:      13547
  ROW_BUFFER_MISS:      64305
 AVG DBUS CONGESTED CYCLE: 3.97
WQ ROW_BUFFER_HIT: Channel 0 
  ROW_BUFFER_MISS:       4496
  FULL:      31486
OPTgen accesses: 4868
OPTgen hits: 5944
OPTgen hit rate: 122.104


