WARNING: physical memory size is smaller than virtual memory size.

*** ChampSim Multicore Out-of-Order Simulator ***
Warmup Instructions: 25000000
Simulation Instructions: 25000000
Number of CPUs: 1
Page size: 4096

Initialize Hawkeye state
Off-chip DRAM Size: 4 GiB Channels: 1 Width: 64-bit Data Race: 800 MT/s
Heartbeat CPU 0 instructions: 10000001 cycles: 2578113 heartbeat IPC: 3.879 cumulative IPC: 3.879 (Simulation time: 00 hr 00 min 36 sec)
Heartbeat CPU 0 instructions: 20000003 cycles: 5156026 heartbeat IPC: 3.879 cumulative IPC: 3.879 (Simulation time: 00 hr 01 min 15 sec)
Warmup finished CPU 0 instructions: 25000000 cycles: 6445044 cumulative IPC: 3.879 (Simulation time: 00 hr 01 min 35 sec)
Warmup complete CPU 0 instructions: 25000000 cycles: 6445044 cumulative IPC: 3.879 (Simulation time: 00 hr 01 min 35 sec)
Heartbeat CPU 0 instructions: 30000000 cycles: 15756784 heartbeat IPC: 0.9433 cumulative IPC: 0.537 (Simulation time: 00 hr 02 min 59 sec)
Heartbeat CPU 0 instructions: 40000002 cycles: 34369563 heartbeat IPC: 0.5373 cumulative IPC: 0.5372 (Simulation time: 00 hr 05 min 57 sec)
Heartbeat CPU 0 instructions: 50000002 cycles: 52935410 heartbeat IPC: 0.5386 cumulative IPC: 0.5377 (Simulation time: 00 hr 08 min 54 sec)
Simulation finished CPU 0 instructions: 25000002 cycles: 46490367 cumulative IPC: 0.5377 (Simulation time: 00 hr 08 min 54 sec)
Simulation complete CPU 0 instructions: 25000002 cycles: 46490367 cumulative IPC: 0.5377 (Simulation time: 00 hr 08 min 54 sec)

ChampSim completed all CPUs

=== Simulation ===
CPU 0 runs ./traces/bwaves_1609B.trace.xz
Region of Interest Statistics

CPU 0 cumulative IPC: 0.5377 instructions: 25000002 cycles: 46490367
CPU 0 Branch Prediction Accuracy: 81.22% MPKI: 5.619 Average ROB Occupancy at Mispredict: 260.9
Branch type MPKI
BRANCH_DIRECT_JUMP: 0
BRANCH_INDIRECT: 0
BRANCH_CONDITIONAL: 5.62
BRANCH_DIRECT_CALL: 0
BRANCH_INDIRECT_CALL: 0
BRANCH_RETURN: 0

LLC TOTAL        ACCESS:     612397 HIT:      24042 MISS:     588355
LLC LOAD         ACCESS:     281779 HIT:      17126 MISS:     264653
LLC RFO          ACCESS:      14594 HIT:          0 MISS:      14594
LLC PREFETCH     ACCESS:     300946 HIT:       6889 MISS:     294057
LLC WRITE        ACCESS:      14790 HIT:         16 MISS:      14774
LLC TRANSLATION  ACCESS:        288 HIT:         11 MISS:        277
LLC PREFETCH REQUESTED:          0 ISSUED:          0 USEFUL:          0 USELESS:          0
LLC AVERAGE MISS LATENCY: 977.4 cycles
cpu0_DTLB TOTAL        ACCESS:    8066560 HIT:    8028367 MISS:      38193
cpu0_DTLB LOAD         ACCESS:    8066560 HIT:    8028367 MISS:      38193
cpu0_DTLB RFO          ACCESS:          0 HIT:          0 MISS:          0
cpu0_DTLB PREFETCH     ACCESS:          0 HIT:          0 MISS:          0
cpu0_DTLB WRITE        ACCESS:          0 HIT:          0 MISS:          0
cpu0_DTLB TRANSLATION  ACCESS:          0 HIT:          0 MISS:          0
cpu0_DTLB PREFETCH REQUESTED:          0 ISSUED:          0 USEFUL:          0 USELESS:          0
cpu0_DTLB AVERAGE MISS LATENCY: 43.71 cycles
cpu0_ITLB TOTAL        ACCESS:          0 HIT:          0 MISS:          0
cpu0_ITLB LOAD         ACCESS:          0 HIT:          0 MISS:          0
cpu0_ITLB RFO          ACCESS:          0 HIT:          0 MISS:          0
cpu0_ITLB PREFETCH     ACCESS:          0 HIT:          0 MISS:          0
cpu0_ITLB WRITE        ACCESS:          0 HIT:          0 MISS:          0
cpu0_ITLB TRANSLATION  ACCESS:          0 HIT:          0 MISS:          0
cpu0_ITLB PREFETCH REQUESTED:          0 ISSUED:          0 USEFUL:          0 USELESS:          0
cpu0_ITLB AVERAGE MISS LATENCY: -nan cycles
cpu0_L1D TOTAL        ACCESS:   12197859 HIT:   10630628 MISS:    1567231
cpu0_L1D LOAD         ACCESS:    8982988 HIT:    8056452 MISS:     926536
cpu0_L1D RFO          ACCESS:          0 HIT:          0 MISS:          0
cpu0_L1D PREFETCH     ACCESS:    2502725 HIT:    1922519 MISS:     580206
cpu0_L1D WRITE        ACCESS:     703494 HIT:     651627 MISS:      51867
cpu0_L1D TRANSLATION  ACCESS:       8652 HIT:         30 MISS:       8622
cpu0_L1D PREFETCH REQUESTED:   12514377 ISSUED:    2502725 USEFUL:     221170 USELESS:      10213
cpu0_L1D AVERAGE MISS LATENCY: 205.4 cycles
cpu0_L1I TOTAL        ACCESS:          0 HIT:          0 MISS:          0
cpu0_L1I LOAD         ACCESS:          0 HIT:          0 MISS:          0
cpu0_L1I RFO          ACCESS:          0 HIT:          0 MISS:          0
cpu0_L1I PREFETCH     ACCESS:          0 HIT:          0 MISS:          0
cpu0_L1I WRITE        ACCESS:          0 HIT:          0 MISS:          0
cpu0_L1I TRANSLATION  ACCESS:          0 HIT:          0 MISS:          0
cpu0_L1I PREFETCH REQUESTED:          0 ISSUED:          0 USEFUL:          0 USELESS:          0
cpu0_L1I AVERAGE MISS LATENCY: -nan cycles
cpu0_L2C TOTAL        ACCESS:     866181 HIT:     153614 MISS:     712567
cpu0_L2C LOAD         ACCESS:     375606 HIT:      61929 MISS:     313677
cpu0_L2C RFO          ACCESS:      14700 HIT:        106 MISS:      14594
cpu0_L2C PREFETCH     ACCESS:     451179 HIT:      67366 MISS:     383813
cpu0_L2C WRITE        ACCESS:      16074 HIT:      15879 MISS:        195
cpu0_L2C TRANSLATION  ACCESS:       8622 HIT:       8334 MISS:        288
cpu0_L2C PREFETCH REQUESTED:     219799 ISSUED:     219799 USEFUL:      92226 USELESS:      15281
cpu0_L2C AVERAGE MISS LATENCY: 762.1 cycles
cpu0_STLB TOTAL        ACCESS:      22009 HIT:      13372 MISS:       8637
cpu0_STLB LOAD         ACCESS:      22009 HIT:      13372 MISS:       8637
cpu0_STLB RFO          ACCESS:          0 HIT:          0 MISS:          0
cpu0_STLB PREFETCH     ACCESS:          0 HIT:          0 MISS:          0
cpu0_STLB WRITE        ACCESS:          0 HIT:          0 MISS:          0
cpu0_STLB TRANSLATION  ACCESS:          0 HIT:          0 MISS:          0
cpu0_STLB PREFETCH REQUESTED:          0 ISSUED:          0 USEFUL:          0 USELESS:          0
cpu0_STLB AVERAGE MISS LATENCY: 239.8 cycles

DRAM Statistics

Channel 0 RQ ROW_BUFFER_HIT:     400678
  ROW_BUFFER_MISS:     167047
 AVG DBUS CONGESTED CYCLE: 3.815
WQ ROW_BUFFER_HIT: Channel 0 
  ROW_BUFFER_MISS:       2158
  FULL:      13417
OPTgen accesses: 2133
OPTgen hits: 120
OPTgen hit rate: 5.62588


