WARNING: physical memory size is smaller than virtual memory size.

*** ChampSim Multicore Out-of-Order Simulator ***
Warmup Instructions: 25000000
Simulation Instructions: 25000000
Number of CPUs: 1
Page size: 4096

Initialize Hawkeye state
Off-chip DRAM Size: 4 GiB Channels: 1 Width: 64-bit Data Race: 800 MT/s
Heartbeat CPU 0 instructions: 10000001 cycles: 2535625 heartbeat IPC: 3.944 cumulative IPC: 3.944 (Simulation time: 00 hr 00 min 28 sec)
Heartbeat CPU 0 instructions: 20000003 cycles: 5066545 heartbeat IPC: 3.951 cumulative IPC: 3.947 (Simulation time: 00 hr 00 min 59 sec)
Warmup finished CPU 0 instructions: 25000003 cycles: 6333736 cumulative IPC: 3.947 (Simulation time: 00 hr 01 min 13 sec)
Warmup complete CPU 0 instructions: 25000003 cycles: 6333736 cumulative IPC: 3.947 (Simulation time: 00 hr 01 min 13 sec)
Heartbeat CPU 0 instructions: 30000000 cycles: 8511921 heartbeat IPC: 2.902 cumulative IPC: 2.295 (Simulation time: 00 hr 01 min 37 sec)
Heartbeat CPU 0 instructions: 40000000 cycles: 14273428 heartbeat IPC: 1.736 cumulative IPC: 1.889 (Simulation time: 00 hr 02 min 32 sec)
Heartbeat CPU 0 instructions: 50000002 cycles: 20776845 heartbeat IPC: 1.538 cumulative IPC: 1.731 (Simulation time: 00 hr 03 min 29 sec)
Simulation finished CPU 0 instructions: 25000002 cycles: 14443111 cumulative IPC: 1.731 (Simulation time: 00 hr 03 min 29 sec)
Simulation complete CPU 0 instructions: 25000002 cycles: 14443111 cumulative IPC: 1.731 (Simulation time: 00 hr 03 min 29 sec)

ChampSim completed all CPUs

=== Simulation ===
CPU 0 runs ./traces/bzip2_259B.trace.xz
Region of Interest Statistics

CPU 0 cumulative IPC: 1.731 instructions: 25000002 cycles: 14443111
CPU 0 Branch Prediction Accuracy: 90.27% MPKI: 17.81 Average ROB Occupancy at Mispredict: 17.54
Branch type MPKI
BRANCH_DIRECT_JUMP: 0.034
BRANCH_INDIRECT: 0.0166
BRANCH_CONDITIONAL: 17.8
BRANCH_DIRECT_CALL: 4e-05
BRANCH_INDIRECT_CALL: 0
BRANCH_RETURN: 4e-05

LLC TOTAL        ACCESS:     243320 HIT:     189314 MISS:      54006
LLC LOAD         ACCESS:      79436 HIT:      69915 MISS:       9521
LLC RFO          ACCESS:      25424 HIT:      12517 MISS:      12907
LLC PREFETCH     ACCESS:     115296 HIT:      92274 MISS:      23022
LLC WRITE        ACCESS:      23133 HIT:      14593 MISS:       8540
LLC TRANSLATION  ACCESS:         31 HIT:         15 MISS:         16
LLC PREFETCH REQUESTED:          0 ISSUED:          0 USEFUL:          0 USELESS:          0
LLC AVERAGE MISS LATENCY: 678.5 cycles
cpu0_DTLB TOTAL        ACCESS:    5476054 HIT:    5319105 MISS:     156949
cpu0_DTLB LOAD         ACCESS:    5476054 HIT:    5319105 MISS:     156949
cpu0_DTLB RFO          ACCESS:          0 HIT:          0 MISS:          0
cpu0_DTLB PREFETCH     ACCESS:          0 HIT:          0 MISS:          0
cpu0_DTLB WRITE        ACCESS:          0 HIT:          0 MISS:          0
cpu0_DTLB TRANSLATION  ACCESS:          0 HIT:          0 MISS:          0
cpu0_DTLB PREFETCH REQUESTED:          0 ISSUED:          0 USEFUL:          0 USELESS:          0
cpu0_DTLB AVERAGE MISS LATENCY: 8.006 cycles
cpu0_ITLB TOTAL        ACCESS:        604 HIT:        602 MISS:          2
cpu0_ITLB LOAD         ACCESS:        604 HIT:        602 MISS:          2
cpu0_ITLB RFO          ACCESS:          0 HIT:          0 MISS:          0
cpu0_ITLB PREFETCH     ACCESS:          0 HIT:          0 MISS:          0
cpu0_ITLB WRITE        ACCESS:          0 HIT:          0 MISS:          0
cpu0_ITLB TRANSLATION  ACCESS:          0 HIT:          0 MISS:          0
cpu0_ITLB PREFETCH REQUESTED:          0 ISSUED:          0 USEFUL:          0 USELESS:          0
cpu0_ITLB AVERAGE MISS LATENCY: 244 cycles
cpu0_L1D TOTAL        ACCESS:    9834027 HIT:    9176372 MISS:     657655
cpu0_L1D LOAD         ACCESS:    3612037 HIT:    3447742 MISS:     164295
cpu0_L1D RFO          ACCESS:          0 HIT:          0 MISS:          0
cpu0_L1D PREFETCH     ACCESS:    3512537 HIT:    3284752 MISS:     227785
cpu0_L1D WRITE        ACCESS:    2709339 HIT:    2443858 MISS:     265481
cpu0_L1D TRANSLATION  ACCESS:        114 HIT:         20 MISS:         94
cpu0_L1D PREFETCH REQUESTED:    4002477 ISSUED:    3512536 USEFUL:      41876 USELESS:     143027
cpu0_L1D AVERAGE MISS LATENCY: 66.21 cycles
cpu0_L1I TOTAL        ACCESS:        671 HIT:        526 MISS:        145
cpu0_L1I LOAD         ACCESS:        671 HIT:        526 MISS:        145
cpu0_L1I RFO          ACCESS:          0 HIT:          0 MISS:          0
cpu0_L1I PREFETCH     ACCESS:          0 HIT:          0 MISS:          0
cpu0_L1I WRITE        ACCESS:          0 HIT:          0 MISS:          0
cpu0_L1I TRANSLATION  ACCESS:          0 HIT:          0 MISS:          0
cpu0_L1I PREFETCH REQUESTED:          0 ISSUED:          0 USEFUL:          0 USELESS:          0
cpu0_L1I AVERAGE MISS LATENCY: 178.6 cycles
cpu0_L2C TOTAL        ACCESS:     420482 HIT:     198138 MISS:     222344
cpu0_L2C LOAD         ACCESS:     155134 HIT:      75383 MISS:      79751
cpu0_L2C RFO          ACCESS:      31534 HIT:       6110 MISS:      25424
cpu0_L2C PREFETCH     ACCESS:     200974 HIT:      83850 MISS:     117124
cpu0_L2C WRITE        ACCESS:      32746 HIT:      32732 MISS:         14
cpu0_L2C TRANSLATION  ACCESS:         94 HIT:         63 MISS:         31
cpu0_L2C PREFETCH REQUESTED:      16180 ISSUED:      16180 USEFUL:        629 USELESS:        349
cpu0_L2C AVERAGE MISS LATENCY: 184.7 cycles
cpu0_STLB TOTAL        ACCESS:     153662 HIT:     153548 MISS:        114
cpu0_STLB LOAD         ACCESS:     153662 HIT:     153548 MISS:        114
cpu0_STLB RFO          ACCESS:          0 HIT:          0 MISS:          0
cpu0_STLB PREFETCH     ACCESS:          0 HIT:          0 MISS:          0
cpu0_STLB WRITE        ACCESS:          0 HIT:          0 MISS:          0
cpu0_STLB TRANSLATION  ACCESS:          0 HIT:          0 MISS:          0
cpu0_STLB PREFETCH REQUESTED:          0 ISSUED:          0 USEFUL:          0 USELESS:          0
cpu0_STLB AVERAGE MISS LATENCY: 342.1 cycles

DRAM Statistics

Channel 0 RQ ROW_BUFFER_HIT:       9627
  ROW_BUFFER_MISS:      35677
 AVG DBUS CONGESTED CYCLE: 3.955
WQ ROW_BUFFER_HIT: Channel 0 
  ROW_BUFFER_MISS:       3005
  FULL:      22195
OPTgen accesses: 604
OPTgen hits: 610
OPTgen hit rate: 100.994


