WARNING: physical memory size is smaller than virtual memory size.

*** ChampSim Multicore Out-of-Order Simulator ***
Warmup Instructions: 25000000
Simulation Instructions: 25000000
Number of CPUs: 1
Page size: 4096

Initialize Hawkeye state
Off-chip DRAM Size: 4 GiB Channels: 1 Width: 64-bit Data Race: 800 MT/s
Heartbeat CPU 0 instructions: 10000000 cycles: 2506863 heartbeat IPC: 3.989 cumulative IPC: 3.989 (Simulation time: 00 hr 00 min 32 sec)
Heartbeat CPU 0 instructions: 20000002 cycles: 5027212 heartbeat IPC: 3.968 cumulative IPC: 3.978 (Simulation time: 00 hr 01 min 05 sec)
Warmup finished CPU 0 instructions: 25000001 cycles: 6303649 cumulative IPC: 3.966 (Simulation time: 00 hr 01 min 22 sec)
Warmup complete CPU 0 instructions: 25000001 cycles: 6303649 cumulative IPC: 3.966 (Simulation time: 00 hr 01 min 22 sec)
Heartbeat CPU 0 instructions: 30000000 cycles: 9129512 heartbeat IPC: 2.438 cumulative IPC: 1.769 (Simulation time: 00 hr 01 min 53 sec)
Heartbeat CPU 0 instructions: 40000001 cycles: 14273455 heartbeat IPC: 1.944 cumulative IPC: 1.882 (Simulation time: 00 hr 02 min 47 sec)
Heartbeat CPU 0 instructions: 50000001 cycles: 18967552 heartbeat IPC: 2.13 cumulative IPC: 1.974 (Simulation time: 00 hr 03 min 39 sec)
Simulation finished CPU 0 instructions: 25000000 cycles: 12663904 cumulative IPC: 1.974 (Simulation time: 00 hr 03 min 39 sec)
Simulation complete CPU 0 instructions: 25000000 cycles: 12663904 cumulative IPC: 1.974 (Simulation time: 00 hr 03 min 39 sec)

ChampSim completed all CPUs

=== Simulation ===
CPU 0 runs ./traces/bzip2_281B.trace.xz
Region of Interest Statistics

CPU 0 cumulative IPC: 1.974 instructions: 25000000 cycles: 12663904
CPU 0 Branch Prediction Accuracy: 91.8% MPKI: 14.4 Average ROB Occupancy at Mispredict: 67.55
Branch type MPKI
BRANCH_DIRECT_JUMP: 0.00064
BRANCH_INDIRECT: 0
BRANCH_CONDITIONAL: 14.4
BRANCH_DIRECT_CALL: 4e-05
BRANCH_INDIRECT_CALL: 0
BRANCH_RETURN: 0.00012

LLC TOTAL        ACCESS:     917296 HIT:     846805 MISS:      70491
LLC LOAD         ACCESS:     502219 HIT:     493869 MISS:       8350
LLC RFO          ACCESS:       9424 HIT:       4459 MISS:       4965
LLC PREFETCH     ACCESS:     395326 HIT:     338735 MISS:      56591
LLC WRITE        ACCESS:      10309 HIT:       9741 MISS:        568
LLC TRANSLATION  ACCESS:         18 HIT:          1 MISS:         17
LLC PREFETCH REQUESTED:          0 ISSUED:          0 USEFUL:          0 USELESS:          0
LLC AVERAGE MISS LATENCY: 437.7 cycles
cpu0_DTLB TOTAL        ACCESS:    5627003 HIT:    5265614 MISS:     361389
cpu0_DTLB LOAD         ACCESS:    5627003 HIT:    5265614 MISS:     361389
cpu0_DTLB RFO          ACCESS:          0 HIT:          0 MISS:          0
cpu0_DTLB PREFETCH     ACCESS:          0 HIT:          0 MISS:          0
cpu0_DTLB WRITE        ACCESS:          0 HIT:          0 MISS:          0
cpu0_DTLB TRANSLATION  ACCESS:          0 HIT:          0 MISS:          0
cpu0_DTLB PREFETCH REQUESTED:          0 ISSUED:          0 USEFUL:          0 USELESS:          0
cpu0_DTLB AVERAGE MISS LATENCY: 6.617 cycles
cpu0_ITLB TOTAL        ACCESS:         76 HIT:         71 MISS:          5
cpu0_ITLB LOAD         ACCESS:         76 HIT:         71 MISS:          5
cpu0_ITLB RFO          ACCESS:          0 HIT:          0 MISS:          0
cpu0_ITLB PREFETCH     ACCESS:          0 HIT:          0 MISS:          0
cpu0_ITLB WRITE        ACCESS:          0 HIT:          0 MISS:          0
cpu0_ITLB TRANSLATION  ACCESS:          0 HIT:          0 MISS:          0
cpu0_ITLB PREFETCH REQUESTED:          0 ISSUED:          0 USEFUL:          0 USELESS:          0
cpu0_ITLB AVERAGE MISS LATENCY: 329.4 cycles
cpu0_L1D TOTAL        ACCESS:    9360227 HIT:    7085561 MISS:    2274666
cpu0_L1D LOAD         ACCESS:    4361241 HIT:    3202911 MISS:    1158330
cpu0_L1D RFO          ACCESS:          0 HIT:          0 MISS:          0
cpu0_L1D PREFETCH     ACCESS:    3116167 HIT:    2066847 MISS:    1049320
cpu0_L1D WRITE        ACCESS:    1882370 HIT:    1815584 MISS:      66786
cpu0_L1D TRANSLATION  ACCESS:        449 HIT:        219 MISS:        230
cpu0_L1D PREFETCH REQUESTED:    4650625 ISSUED:    3116159 USEFUL:      81160 USELESS:     379523
cpu0_L1D AVERAGE MISS LATENCY: 21.49 cycles
cpu0_L1I TOTAL        ACCESS:         90 HIT:         24 MISS:         66
cpu0_L1I LOAD         ACCESS:         90 HIT:         24 MISS:         66
cpu0_L1I RFO          ACCESS:          0 HIT:          0 MISS:          0
cpu0_L1I PREFETCH     ACCESS:          0 HIT:          0 MISS:          0
cpu0_L1I WRITE        ACCESS:          0 HIT:          0 MISS:          0
cpu0_L1I TRANSLATION  ACCESS:          0 HIT:          0 MISS:          0
cpu0_L1I PREFETCH REQUESTED:          0 ISSUED:          0 USEFUL:          0 USELESS:          0
cpu0_L1I AVERAGE MISS LATENCY: 197.3 cycles
cpu0_L2C TOTAL        ACCESS:    1309946 HIT:     324962 MISS:     984984
cpu0_L2C LOAD         ACCESS:     670436 HIT:     162658 MISS:     507778
cpu0_L2C RFO          ACCESS:       9860 HIT:        436 MISS:       9424
cpu0_L2C PREFETCH     ACCESS:     618151 HIT:     150574 MISS:     467577
cpu0_L2C WRITE        ACCESS:      11269 HIT:      11082 MISS:        187
cpu0_L2C TRANSLATION  ACCESS:        230 HIT:        212 MISS:         18
cpu0_L2C PREFETCH REQUESTED:     157461 ISSUED:     157455 USEFUL:      28020 USELESS:      39036
cpu0_L2C AVERAGE MISS LATENCY: 48.72 cycles
cpu0_STLB TOTAL        ACCESS:     312850 HIT:     312401 MISS:        449
cpu0_STLB LOAD         ACCESS:     312850 HIT:     312401 MISS:        449
cpu0_STLB RFO          ACCESS:          0 HIT:          0 MISS:          0
cpu0_STLB PREFETCH     ACCESS:          0 HIT:          0 MISS:          0
cpu0_STLB WRITE        ACCESS:          0 HIT:          0 MISS:          0
cpu0_STLB TRANSLATION  ACCESS:          0 HIT:          0 MISS:          0
cpu0_STLB PREFETCH REQUESTED:          0 ISSUED:          0 USEFUL:          0 USELESS:          0
cpu0_STLB AVERAGE MISS LATENCY: 229.2 cycles

DRAM Statistics

Channel 0 RQ ROW_BUFFER_HIT:      31450
  ROW_BUFFER_MISS:      38435
 AVG DBUS CONGESTED CYCLE: 3.933
WQ ROW_BUFFER_HIT: Channel 0 
  ROW_BUFFER_MISS:       3103
  FULL:      21597
OPTgen accesses: 3859
OPTgen hits: 4421
OPTgen hit rate: 114.564


