WARNING: physical memory size is smaller than virtual memory size.

*** ChampSim Multicore Out-of-Order Simulator ***
Warmup Instructions: 25000000
Simulation Instructions: 25000000
Number of CPUs: 1
Page size: 4096

Initialize Hawkeye state
Off-chip DRAM Size: 4 GiB Channels: 1 Width: 64-bit Data Race: 800 MT/s
Heartbeat CPU 0 instructions: 10000003 cycles: 2500428 heartbeat IPC: 3.999 cumulative IPC: 3.999 (Simulation time: 00 hr 00 min 26 sec)
Heartbeat CPU 0 instructions: 20000002 cycles: 5000618 heartbeat IPC: 4 cumulative IPC: 4 (Simulation time: 00 hr 00 min 54 sec)
Warmup finished CPU 0 instructions: 25000002 cycles: 6250822 cumulative IPC: 3.999 (Simulation time: 00 hr 01 min 08 sec)
Warmup complete CPU 0 instructions: 25000002 cycles: 6250822 cumulative IPC: 3.999 (Simulation time: 00 hr 01 min 08 sec)
Heartbeat CPU 0 instructions: 30000000 cycles: 7842073 heartbeat IPC: 3.519 cumulative IPC: 3.142 (Simulation time: 00 hr 01 min 28 sec)
Heartbeat CPU 0 instructions: 40000002 cycles: 10837190 heartbeat IPC: 3.339 cumulative IPC: 3.271 (Simulation time: 00 hr 02 min 07 sec)
Heartbeat CPU 0 instructions: 50000002 cycles: 14189834 heartbeat IPC: 2.983 cumulative IPC: 3.149 (Simulation time: 00 hr 02 min 49 sec)
Simulation finished CPU 0 instructions: 25000000 cycles: 7939013 cumulative IPC: 3.149 (Simulation time: 00 hr 02 min 49 sec)
Simulation complete CPU 0 instructions: 25000000 cycles: 7939013 cumulative IPC: 3.149 (Simulation time: 00 hr 02 min 49 sec)

ChampSim completed all CPUs

=== Simulation ===
CPU 0 runs ./traces/calculix_2655B.trace.xz
Region of Interest Statistics

CPU 0 cumulative IPC: 3.149 instructions: 25000000 cycles: 7939013
CPU 0 Branch Prediction Accuracy: 98.05% MPKI: 0.7955 Average ROB Occupancy at Mispredict: 272
Branch type MPKI
BRANCH_DIRECT_JUMP: 0.00068
BRANCH_INDIRECT: 0
BRANCH_CONDITIONAL: 0.795
BRANCH_DIRECT_CALL: 0
BRANCH_INDIRECT_CALL: 0
BRANCH_RETURN: 4e-05

LLC TOTAL        ACCESS:     237156 HIT:     202853 MISS:      34303
LLC LOAD         ACCESS:      36045 HIT:      31617 MISS:       4428
LLC RFO          ACCESS:        110 HIT:        101 MISS:          9
LLC PREFETCH     ACCESS:     175804 HIT:     146794 MISS:      29010
LLC WRITE        ACCESS:      25016 HIT:      24297 MISS:        719
LLC TRANSLATION  ACCESS:        181 HIT:         44 MISS:        137
LLC PREFETCH REQUESTED:          0 ISSUED:          0 USEFUL:          0 USELESS:          0
LLC AVERAGE MISS LATENCY: 426.1 cycles
cpu0_DTLB TOTAL        ACCESS:    3990376 HIT:    3977763 MISS:      12613
cpu0_DTLB LOAD         ACCESS:    3990376 HIT:    3977763 MISS:      12613
cpu0_DTLB RFO          ACCESS:          0 HIT:          0 MISS:          0
cpu0_DTLB PREFETCH     ACCESS:          0 HIT:          0 MISS:          0
cpu0_DTLB WRITE        ACCESS:          0 HIT:          0 MISS:          0
cpu0_DTLB TRANSLATION  ACCESS:          0 HIT:          0 MISS:          0
cpu0_DTLB PREFETCH REQUESTED:          0 ISSUED:          0 USEFUL:          0 USELESS:          0
cpu0_DTLB AVERAGE MISS LATENCY: 10.94 cycles
cpu0_ITLB TOTAL        ACCESS:        924 HIT:        924 MISS:          0
cpu0_ITLB LOAD         ACCESS:        924 HIT:        924 MISS:          0
cpu0_ITLB RFO          ACCESS:          0 HIT:          0 MISS:          0
cpu0_ITLB PREFETCH     ACCESS:          0 HIT:          0 MISS:          0
cpu0_ITLB WRITE        ACCESS:          0 HIT:          0 MISS:          0
cpu0_ITLB TRANSLATION  ACCESS:          0 HIT:          0 MISS:          0
cpu0_ITLB PREFETCH REQUESTED:          0 ISSUED:          0 USEFUL:          0 USELESS:          0
cpu0_ITLB AVERAGE MISS LATENCY: -nan cycles
cpu0_L1D TOTAL        ACCESS:    8809051 HIT:    7700512 MISS:    1108539
cpu0_L1D LOAD         ACCESS:    4692051 HIT:    4271787 MISS:     420264
cpu0_L1D RFO          ACCESS:          0 HIT:          0 MISS:          0
cpu0_L1D PREFETCH     ACCESS:    3739036 HIT:    3051784 MISS:     687252
cpu0_L1D WRITE        ACCESS:     377417 HIT:     376770 MISS:        647
cpu0_L1D TRANSLATION  ACCESS:        547 HIT:        171 MISS:        376
cpu0_L1D PREFETCH REQUESTED:    4692051 ISSUED:    3739034 USEFUL:     241335 USELESS:       8265
cpu0_L1D AVERAGE MISS LATENCY: 7.204 cycles
cpu0_L1I TOTAL        ACCESS:       1012 HIT:       1012 MISS:          0
cpu0_L1I LOAD         ACCESS:       1012 HIT:       1012 MISS:          0
cpu0_L1I RFO          ACCESS:          0 HIT:          0 MISS:          0
cpu0_L1I PREFETCH     ACCESS:          0 HIT:          0 MISS:          0
cpu0_L1I WRITE        ACCESS:          0 HIT:          0 MISS:          0
cpu0_L1I TRANSLATION  ACCESS:          0 HIT:          0 MISS:          0
cpu0_L1I PREFETCH REQUESTED:          0 ISSUED:          0 USEFUL:          0 USELESS:          0
cpu0_L1I AVERAGE MISS LATENCY: -nan cycles
cpu0_L2C TOTAL        ACCESS:     495860 HIT:     279015 MISS:     216845
cpu0_L2C LOAD         ACCESS:      67526 HIT:      31079 MISS:      36447
cpu0_L2C RFO          ACCESS:        365 HIT:        255 MISS:        110
cpu0_L2C PREFETCH     ACCESS:     397822 HIT:     217766 MISS:     180056
cpu0_L2C WRITE        ACCESS:      29773 HIT:      29722 MISS:         51
cpu0_L2C TRANSLATION  ACCESS:        374 HIT:        193 MISS:        181
cpu0_L2C PREFETCH REQUESTED:     148219 ISSUED:     148219 USEFUL:      82039 USELESS:       2985
cpu0_L2C AVERAGE MISS LATENCY: 84.93 cycles
cpu0_STLB TOTAL        ACCESS:       4217 HIT:       3678 MISS:        539
cpu0_STLB LOAD         ACCESS:       4217 HIT:       3678 MISS:        539
cpu0_STLB RFO          ACCESS:          0 HIT:          0 MISS:          0
cpu0_STLB PREFETCH     ACCESS:          0 HIT:          0 MISS:          0
cpu0_STLB WRITE        ACCESS:          0 HIT:          0 MISS:          0
cpu0_STLB TRANSLATION  ACCESS:          0 HIT:          0 MISS:          0
cpu0_STLB PREFETCH REQUESTED:          0 ISSUED:          0 USEFUL:          0 USELESS:          0
cpu0_STLB AVERAGE MISS LATENCY: 304.7 cycles

DRAM Statistics

Channel 0 RQ ROW_BUFFER_HIT:      29320
  ROW_BUFFER_MISS:       4247
 AVG DBUS CONGESTED CYCLE: 3.907
WQ ROW_BUFFER_HIT: Channel 0 
  ROW_BUFFER_MISS:        568
  FULL:       1984
OPTgen accesses: 233
OPTgen hits: 1661
OPTgen hit rate: 712.876


