WARNING: physical memory size is smaller than virtual memory size.

*** ChampSim Multicore Out-of-Order Simulator ***
Warmup Instructions: 25000000
Simulation Instructions: 25000000
Number of CPUs: 1
Page size: 4096

Initialize Hawkeye state
Off-chip DRAM Size: 4 GiB Channels: 1 Width: 64-bit Data Race: 800 MT/s
Heartbeat CPU 0 instructions: 10000003 cycles: 2500113 heartbeat IPC: 4 cumulative IPC: 4 (Simulation time: 00 hr 00 min 35 sec)
Heartbeat CPU 0 instructions: 20000000 cycles: 5001249 heartbeat IPC: 3.998 cumulative IPC: 3.999 (Simulation time: 00 hr 01 min 12 sec)
Warmup finished CPU 0 instructions: 25000002 cycles: 6251544 cumulative IPC: 3.999 (Simulation time: 00 hr 01 min 31 sec)
Warmup complete CPU 0 instructions: 25000002 cycles: 6251544 cumulative IPC: 3.999 (Simulation time: 00 hr 01 min 31 sec)
Heartbeat CPU 0 instructions: 30000002 cycles: 9810485 heartbeat IPC: 2.079 cumulative IPC: 1.405 (Simulation time: 00 hr 02 min 11 sec)
Heartbeat CPU 0 instructions: 40000003 cycles: 15692546 heartbeat IPC: 1.7 cumulative IPC: 1.589 (Simulation time: 00 hr 03 min 23 sec)
Heartbeat CPU 0 instructions: 50000003 cycles: 20631815 heartbeat IPC: 2.025 cumulative IPC: 1.738 (Simulation time: 00 hr 04 min 32 sec)
Simulation finished CPU 0 instructions: 25000001 cycles: 14380272 cumulative IPC: 1.738 (Simulation time: 00 hr 04 min 32 sec)
Simulation complete CPU 0 instructions: 25000001 cycles: 14380272 cumulative IPC: 1.738 (Simulation time: 00 hr 04 min 32 sec)

ChampSim completed all CPUs

=== Simulation ===
CPU 0 runs ./traces/hmmer_397B.trace.xz
Region of Interest Statistics

CPU 0 cumulative IPC: 1.738 instructions: 25000001 cycles: 14380272
CPU 0 Branch Prediction Accuracy: 99.17% MPKI: 0.3152 Average ROB Occupancy at Mispredict: 237.3
Branch type MPKI
BRANCH_DIRECT_JUMP: 8e-05
BRANCH_INDIRECT: 0.0002
BRANCH_CONDITIONAL: 0.315
BRANCH_DIRECT_CALL: 0
BRANCH_INDIRECT_CALL: 0
BRANCH_RETURN: 0.00012

LLC TOTAL        ACCESS:     157414 HIT:      49322 MISS:     108092
LLC LOAD         ACCESS:       1740 HIT:       1201 MISS:        539
LLC RFO          ACCESS:      75236 HIT:      12515 MISS:      62721
LLC PREFETCH     ACCESS:       6861 HIT:       4838 MISS:       2023
LLC WRITE        ACCESS:      73569 HIT:      30765 MISS:      42804
LLC TRANSLATION  ACCESS:          8 HIT:          3 MISS:          5
LLC PREFETCH REQUESTED:          0 ISSUED:          0 USEFUL:          0 USELESS:          0
LLC AVERAGE MISS LATENCY: 1574 cycles
cpu0_DTLB TOTAL        ACCESS:    5600846 HIT:    5597043 MISS:       3803
cpu0_DTLB LOAD         ACCESS:    5600846 HIT:    5597043 MISS:       3803
cpu0_DTLB RFO          ACCESS:          0 HIT:          0 MISS:          0
cpu0_DTLB PREFETCH     ACCESS:          0 HIT:          0 MISS:          0
cpu0_DTLB WRITE        ACCESS:          0 HIT:          0 MISS:          0
cpu0_DTLB TRANSLATION  ACCESS:          0 HIT:          0 MISS:          0
cpu0_DTLB PREFETCH REQUESTED:          0 ISSUED:          0 USEFUL:          0 USELESS:          0
cpu0_DTLB AVERAGE MISS LATENCY: 14.8 cycles
cpu0_ITLB TOTAL        ACCESS:        658 HIT:        644 MISS:         14
cpu0_ITLB LOAD         ACCESS:        658 HIT:        644 MISS:         14
cpu0_ITLB RFO          ACCESS:          0 HIT:          0 MISS:          0
cpu0_ITLB PREFETCH     ACCESS:          0 HIT:          0 MISS:          0
cpu0_ITLB WRITE        ACCESS:          0 HIT:          0 MISS:          0
cpu0_ITLB TRANSLATION  ACCESS:          0 HIT:          0 MISS:          0
cpu0_ITLB PREFETCH REQUESTED:          0 ISSUED:          0 USEFUL:          0 USELESS:          0
cpu0_ITLB AVERAGE MISS LATENCY: 1.214 cycles
cpu0_L1D TOTAL        ACCESS:    8174502 HIT:    5262681 MISS:    2911821
cpu0_L1D LOAD         ACCESS:    4329855 HIT:    4255474 MISS:      74381
cpu0_L1D RFO          ACCESS:          0 HIT:          0 MISS:          0
cpu0_L1D PREFETCH     ACCESS:     329442 HIT:     295690 MISS:      33752
cpu0_L1D WRITE        ACCESS:    3514950 HIT:     711507 MISS:    2803443
cpu0_L1D TRANSLATION  ACCESS:        255 HIT:         10 MISS:        245
cpu0_L1D PREFETCH REQUESTED:    5954994 ISSUED:     329442 USEFUL:       6050 USELESS:       2964
cpu0_L1D AVERAGE MISS LATENCY: 47.76 cycles
cpu0_L1I TOTAL        ACCESS:        738 HIT:        712 MISS:         26
cpu0_L1I LOAD         ACCESS:        738 HIT:        712 MISS:         26
cpu0_L1I RFO          ACCESS:          0 HIT:          0 MISS:          0
cpu0_L1I PREFETCH     ACCESS:          0 HIT:          0 MISS:          0
cpu0_L1I WRITE        ACCESS:          0 HIT:          0 MISS:          0
cpu0_L1I TRANSLATION  ACCESS:          0 HIT:          0 MISS:          0
cpu0_L1I PREFETCH REQUESTED:          0 ISSUED:          0 USEFUL:          0 USELESS:          0
cpu0_L1I AVERAGE MISS LATENCY: 347 cycles
cpu0_L2C TOTAL        ACCESS:     302748 HIT:     218409 MISS:      84339
cpu0_L2C LOAD         ACCESS:      51285 HIT:      49423 MISS:       1862
cpu0_L2C RFO          ACCESS:      75254 HIT:         18 MISS:      75236
cpu0_L2C PREFETCH     ACCESS:     102206 HIT:      94977 MISS:       7229
cpu0_L2C WRITE        ACCESS:      73758 HIT:      73754 MISS:          4
cpu0_L2C TRANSLATION  ACCESS:        245 HIT:        237 MISS:          8
cpu0_L2C PREFETCH REQUESTED:      93191 ISSUED:      93191 USEFUL:       3383 USELESS:        240
cpu0_L2C AVERAGE MISS LATENCY: 2036 cycles
cpu0_STLB TOTAL        ACCESS:       1658 HIT:       1403 MISS:        255
cpu0_STLB LOAD         ACCESS:       1658 HIT:       1403 MISS:        255
cpu0_STLB RFO          ACCESS:          0 HIT:          0 MISS:          0
cpu0_STLB PREFETCH     ACCESS:          0 HIT:          0 MISS:          0
cpu0_STLB WRITE        ACCESS:          0 HIT:          0 MISS:          0
cpu0_STLB TRANSLATION  ACCESS:          0 HIT:          0 MISS:          0
cpu0_STLB PREFETCH REQUESTED:          0 ISSUED:          0 USEFUL:          0 USELESS:          0
cpu0_STLB AVERAGE MISS LATENCY: 270.8 cycles

DRAM Statistics

Channel 0 RQ ROW_BUFFER_HIT:      32921
  ROW_BUFFER_MISS:      32318
 AVG DBUS CONGESTED CYCLE: 3.947
WQ ROW_BUFFER_HIT: Channel 0 
  ROW_BUFFER_MISS:      12756
  FULL:      51121
OPTgen accesses: 593
OPTgen hits: 205
OPTgen hit rate: 34.57


