WARNING: physical memory size is smaller than virtual memory size.

*** ChampSim Multicore Out-of-Order Simulator ***
Warmup Instructions: 25000000
Simulation Instructions: 25000000
Number of CPUs: 1
Page size: 4096

Initialize Hawkeye state
Off-chip DRAM Size: 4 GiB Channels: 1 Width: 64-bit Data Race: 800 MT/s
Heartbeat CPU 0 instructions: 10000001 cycles: 2507956 heartbeat IPC: 3.987 cumulative IPC: 3.987 (Simulation time: 00 hr 00 min 31 sec)
Heartbeat CPU 0 instructions: 20000001 cycles: 5019745 heartbeat IPC: 3.981 cumulative IPC: 3.984 (Simulation time: 00 hr 01 min 05 sec)
Warmup finished CPU 0 instructions: 25000000 cycles: 6277605 cumulative IPC: 3.982 (Simulation time: 00 hr 01 min 23 sec)
Warmup complete CPU 0 instructions: 25000000 cycles: 6277605 cumulative IPC: 3.982 (Simulation time: 00 hr 01 min 23 sec)
Heartbeat CPU 0 instructions: 30000000 cycles: 26674237 heartbeat IPC: 0.4618 cumulative IPC: 0.2451 (Simulation time: 00 hr 03 min 58 sec)
Heartbeat CPU 0 instructions: 40000002 cycles: 69033473 heartbeat IPC: 0.2361 cumulative IPC: 0.239 (Simulation time: 00 hr 09 min 37 sec)
Heartbeat CPU 0 instructions: 50000002 cycles: 110786885 heartbeat IPC: 0.2395 cumulative IPC: 0.2392 (Simulation time: 00 hr 15 min 11 sec)
Simulation finished CPU 0 instructions: 25000002 cycles: 104509281 cumulative IPC: 0.2392 (Simulation time: 00 hr 15 min 11 sec)
Simulation complete CPU 0 instructions: 25000002 cycles: 104509281 cumulative IPC: 0.2392 (Simulation time: 00 hr 15 min 11 sec)

ChampSim completed all CPUs

=== Simulation ===
CPU 0 runs ./traces/lbm_1004B.trace.xz
Region of Interest Statistics

CPU 0 cumulative IPC: 0.2392 instructions: 25000002 cycles: 104509281
CPU 0 Branch Prediction Accuracy: 99.25% MPKI: 0.08728 Average ROB Occupancy at Mispredict: 256.9
Branch type MPKI
BRANCH_DIRECT_JUMP: 0
BRANCH_INDIRECT: 0
BRANCH_CONDITIONAL: 0.0873
BRANCH_DIRECT_CALL: 0
BRANCH_INDIRECT_CALL: 0
BRANCH_RETURN: 0

LLC TOTAL        ACCESS:    1299472 HIT:     132137 MISS:    1167335
LLC LOAD         ACCESS:      87393 HIT:        901 MISS:      86492
LLC RFO          ACCESS:     554589 HIT:      50286 MISS:     504303
LLC PREFETCH     ACCESS:     101105 HIT:        429 MISS:     100676
LLC WRITE        ACCESS:     556307 HIT:      80521 MISS:     475786
LLC TRANSLATION  ACCESS:         78 HIT:          0 MISS:         78
LLC PREFETCH REQUESTED:          0 ISSUED:          0 USEFUL:          0 USELESS:          0
LLC AVERAGE MISS LATENCY: 1216 cycles
cpu0_DTLB TOTAL        ACCESS:    4068502 HIT:    4053733 MISS:      14769
cpu0_DTLB LOAD         ACCESS:    4068502 HIT:    4053733 MISS:      14769
cpu0_DTLB RFO          ACCESS:          0 HIT:          0 MISS:          0
cpu0_DTLB PREFETCH     ACCESS:          0 HIT:          0 MISS:          0
cpu0_DTLB WRITE        ACCESS:          0 HIT:          0 MISS:          0
cpu0_DTLB TRANSLATION  ACCESS:          0 HIT:          0 MISS:          0
cpu0_DTLB PREFETCH REQUESTED:          0 ISSUED:          0 USEFUL:          0 USELESS:          0
cpu0_DTLB AVERAGE MISS LATENCY: 238.6 cycles
cpu0_ITLB TOTAL        ACCESS:          0 HIT:          0 MISS:          0
cpu0_ITLB LOAD         ACCESS:          0 HIT:          0 MISS:          0
cpu0_ITLB RFO          ACCESS:          0 HIT:          0 MISS:          0
cpu0_ITLB PREFETCH     ACCESS:          0 HIT:          0 MISS:          0
cpu0_ITLB WRITE        ACCESS:          0 HIT:          0 MISS:          0
cpu0_ITLB TRANSLATION  ACCESS:          0 HIT:          0 MISS:          0
cpu0_ITLB PREFETCH REQUESTED:          0 ISSUED:          0 USEFUL:          0 USELESS:          0
cpu0_ITLB AVERAGE MISS LATENCY: -nan cycles
cpu0_L1D TOTAL        ACCESS:    7228371 HIT:    3996093 MISS:    3232278
cpu0_L1D LOAD         ACCESS:    2211914 HIT:    1437114 MISS:     774800
cpu0_L1D RFO          ACCESS:          0 HIT:          0 MISS:          0
cpu0_L1D PREFETCH     ACCESS:    2464844 HIT:    1090678 MISS:    1374166
cpu0_L1D WRITE        ACCESS:    2540048 HIT:    1467304 MISS:    1072744
cpu0_L1D TRANSLATION  ACCESS:      11565 HIT:        997 MISS:      10568
cpu0_L1D PREFETCH REQUESTED:   10542737 ISSUED:    2464847 USEFUL:      72781 USELESS:       1735
cpu0_L1D AVERAGE MISS LATENCY: 365.8 cycles
cpu0_L1I TOTAL        ACCESS:          0 HIT:          0 MISS:          0
cpu0_L1I LOAD         ACCESS:          0 HIT:          0 MISS:          0
cpu0_L1I RFO          ACCESS:          0 HIT:          0 MISS:          0
cpu0_L1I PREFETCH     ACCESS:          0 HIT:          0 MISS:          0
cpu0_L1I WRITE        ACCESS:          0 HIT:          0 MISS:          0
cpu0_L1I TRANSLATION  ACCESS:          0 HIT:          0 MISS:          0
cpu0_L1I PREFETCH REQUESTED:          0 ISSUED:          0 USEFUL:          0 USELESS:          0
cpu0_L1I AVERAGE MISS LATENCY: -nan cycles
cpu0_L2C TOTAL        ACCESS:    2347673 HIT:    1602533 MISS:     745140
cpu0_L2C LOAD         ACCESS:     112000 HIT:      24497 MISS:      87503
cpu0_L2C RFO          ACCESS:    1042955 HIT:     488366 MISS:     554589
cpu0_L2C PREFETCH     ACCESS:     139182 HIT:      36212 MISS:     102970
cpu0_L2C WRITE        ACCESS:    1042968 HIT:    1042968 MISS:          0
cpu0_L2C TRANSLATION  ACCESS:      10568 HIT:      10490 MISS:         78
cpu0_L2C PREFETCH REQUESTED:      64669 ISSUED:      64669 USEFUL:      25347 USELESS:         18
cpu0_L2C AVERAGE MISS LATENCY: 1922 cycles
cpu0_STLB TOTAL        ACCESS:      11554 HIT:          0 MISS:      11554
cpu0_STLB LOAD         ACCESS:      11554 HIT:          0 MISS:      11554
cpu0_STLB RFO          ACCESS:          0 HIT:          0 MISS:          0
cpu0_STLB PREFETCH     ACCESS:          0 HIT:          0 MISS:          0
cpu0_STLB WRITE        ACCESS:          0 HIT:          0 MISS:          0
cpu0_STLB TRANSLATION  ACCESS:          0 HIT:          0 MISS:          0
cpu0_STLB PREFETCH REQUESTED:          0 ISSUED:          0 USEFUL:          0 USELESS:          0
cpu0_STLB AVERAGE MISS LATENCY: 314.7 cycles

DRAM Statistics

Channel 0 RQ ROW_BUFFER_HIT:      50839
  ROW_BUFFER_MISS:     640072
 AVG DBUS CONGESTED CYCLE: 3.981
WQ ROW_BUFFER_HIT: Channel 0 
  ROW_BUFFER_MISS:      31799
  FULL:     495021
OPTgen accesses: 4988
OPTgen hits: 1232
OPTgen hit rate: 24.6993


