WARNING: physical memory size is smaller than virtual memory size.

*** ChampSim Multicore Out-of-Order Simulator ***
Warmup Instructions: 25000000
Simulation Instructions: 25000000
Number of CPUs: 1
Page size: 4096

Initialize Hawkeye state
Off-chip DRAM Size: 4 GiB Channels: 1 Width: 64-bit Data Race: 800 MT/s
Heartbeat CPU 0 instructions: 10000000 cycles: 2526161 heartbeat IPC: 3.959 cumulative IPC: 3.959 (Simulation time: 00 hr 00 min 38 sec)
Heartbeat CPU 0 instructions: 20000002 cycles: 5052258 heartbeat IPC: 3.959 cumulative IPC: 3.959 (Simulation time: 00 hr 01 min 18 sec)
Warmup finished CPU 0 instructions: 25000003 cycles: 6315325 cumulative IPC: 3.959 (Simulation time: 00 hr 01 min 38 sec)
Warmup complete CPU 0 instructions: 25000003 cycles: 6315325 cumulative IPC: 3.959 (Simulation time: 00 hr 01 min 38 sec)
Heartbeat CPU 0 instructions: 30000001 cycles: 13433037 heartbeat IPC: 1.193 cumulative IPC: 0.7025 (Simulation time: 00 hr 02 min 49 sec)
Heartbeat CPU 0 instructions: 40000001 cycles: 32923253 heartbeat IPC: 0.5131 cumulative IPC: 0.5637 (Simulation time: 00 hr 05 min 52 sec)
Heartbeat CPU 0 instructions: 50000003 cycles: 69744750 heartbeat IPC: 0.2716 cumulative IPC: 0.3941 (Simulation time: 00 hr 11 min 22 sec)
Simulation finished CPU 0 instructions: 25000000 cycles: 63429426 cumulative IPC: 0.3941 (Simulation time: 00 hr 11 min 22 sec)
Simulation complete CPU 0 instructions: 25000000 cycles: 63429426 cumulative IPC: 0.3941 (Simulation time: 00 hr 11 min 22 sec)

ChampSim completed all CPUs

=== Simulation ===
CPU 0 runs ./traces/leslie3d_1116B.trace.xz
Region of Interest Statistics

CPU 0 cumulative IPC: 0.3941 instructions: 25000000 cycles: 63429426
CPU 0 Branch Prediction Accuracy: 98.2% MPKI: 1.067 Average ROB Occupancy at Mispredict: 297.2
Branch type MPKI
BRANCH_DIRECT_JUMP: 0.00032
BRANCH_INDIRECT: 0
BRANCH_CONDITIONAL: 1.06
BRANCH_DIRECT_CALL: 0.00228
BRANCH_INDIRECT_CALL: 0
BRANCH_RETURN: 0.0022

LLC TOTAL        ACCESS:    1139371 HIT:      70305 MISS:    1069066
LLC LOAD         ACCESS:     127504 HIT:      13758 MISS:     113746
LLC RFO          ACCESS:     253614 HIT:       4932 MISS:     248682
LLC PREFETCH     ACCESS:     503099 HIT:      23625 MISS:     479474
LLC WRITE        ACCESS:     253377 HIT:      26755 MISS:     226622
LLC TRANSLATION  ACCESS:       1777 HIT:       1235 MISS:        542
LLC PREFETCH REQUESTED:          0 ISSUED:          0 USEFUL:          0 USELESS:          0
LLC AVERAGE MISS LATENCY: 792.4 cycles
cpu0_DTLB TOTAL        ACCESS:    5867005 HIT:    5790756 MISS:      76249
cpu0_DTLB LOAD         ACCESS:    5867005 HIT:    5790756 MISS:      76249
cpu0_DTLB RFO          ACCESS:          0 HIT:          0 MISS:          0
cpu0_DTLB PREFETCH     ACCESS:          0 HIT:          0 MISS:          0
cpu0_DTLB WRITE        ACCESS:          0 HIT:          0 MISS:          0
cpu0_DTLB TRANSLATION  ACCESS:          0 HIT:          0 MISS:          0
cpu0_DTLB PREFETCH REQUESTED:          0 ISSUED:          0 USEFUL:          0 USELESS:          0
cpu0_DTLB AVERAGE MISS LATENCY: 21.64 cycles
cpu0_ITLB TOTAL        ACCESS:      72195 HIT:      72172 MISS:         23
cpu0_ITLB LOAD         ACCESS:      72195 HIT:      72172 MISS:         23
cpu0_ITLB RFO          ACCESS:          0 HIT:          0 MISS:          0
cpu0_ITLB PREFETCH     ACCESS:          0 HIT:          0 MISS:          0
cpu0_ITLB WRITE        ACCESS:          0 HIT:          0 MISS:          0
cpu0_ITLB TRANSLATION  ACCESS:          0 HIT:          0 MISS:          0
cpu0_ITLB PREFETCH REQUESTED:          0 ISSUED:          0 USEFUL:          0 USELESS:          0
cpu0_ITLB AVERAGE MISS LATENCY: 236.1 cycles
cpu0_L1D TOTAL        ACCESS:   11282844 HIT:    6962205 MISS:    4320639
cpu0_L1D LOAD         ACCESS:    5379702 HIT:    3978054 MISS:    1401648
cpu0_L1D RFO          ACCESS:          0 HIT:          0 MISS:          0
cpu0_L1D PREFETCH     ACCESS:    2701013 HIT:    1869733 MISS:     831280
cpu0_L1D WRITE        ACCESS:    3192677 HIT:    1107383 MISS:    2085294
cpu0_L1D TRANSLATION  ACCESS:       9452 HIT:       7035 MISS:       2417
cpu0_L1D PREFETCH REQUESTED:   11077956 ISSUED:    2701008 USEFUL:     233041 USELESS:      14765
cpu0_L1D AVERAGE MISS LATENCY: 146.6 cycles
cpu0_L1I TOTAL        ACCESS:      96108 HIT:      95905 MISS:        203
cpu0_L1I LOAD         ACCESS:      96108 HIT:      95905 MISS:        203
cpu0_L1I RFO          ACCESS:          0 HIT:          0 MISS:          0
cpu0_L1I PREFETCH     ACCESS:          0 HIT:          0 MISS:          0
cpu0_L1I WRITE        ACCESS:          0 HIT:          0 MISS:          0
cpu0_L1I TRANSLATION  ACCESS:          0 HIT:          0 MISS:          0
cpu0_L1I PREFETCH REQUESTED:          0 ISSUED:          0 USEFUL:          0 USELESS:          0
cpu0_L1I AVERAGE MISS LATENCY: 307.4 cycles
cpu0_L2C TOTAL        ACCESS:    1942282 HIT:     786620 MISS:    1155662
cpu0_L2C LOAD         ACCESS:     314710 HIT:     136463 MISS:     178247
cpu0_L2C RFO          ACCESS:     314333 HIT:      60718 MISS:     253615
cpu0_L2C PREFETCH     ACCESS:     956337 HIT:     234431 MISS:     721906
cpu0_L2C WRITE        ACCESS:     354488 HIT:     354371 MISS:        117
cpu0_L2C TRANSLATION  ACCESS:       2414 HIT:        637 MISS:       1777
cpu0_L2C PREFETCH REQUESTED:     708733 ISSUED:     708532 USEFUL:      86585 USELESS:      73196
cpu0_L2C AVERAGE MISS LATENCY: 693.5 cycles
cpu0_STLB TOTAL        ACCESS:      15230 HIT:       5789 MISS:       9441
cpu0_STLB LOAD         ACCESS:      15230 HIT:       5789 MISS:       9441
cpu0_STLB RFO          ACCESS:          0 HIT:          0 MISS:          0
cpu0_STLB PREFETCH     ACCESS:          0 HIT:          0 MISS:          0
cpu0_STLB WRITE        ACCESS:          0 HIT:          0 MISS:          0
cpu0_STLB TRANSLATION  ACCESS:          0 HIT:          0 MISS:          0
cpu0_STLB PREFETCH REQUESTED:          0 ISSUED:          0 USEFUL:          0 USELESS:          0
cpu0_STLB AVERAGE MISS LATENCY: 249.1 cycles

DRAM Statistics

Channel 0 RQ ROW_BUFFER_HIT:     238445
  ROW_BUFFER_MISS:     393825
 AVG DBUS CONGESTED CYCLE: 3.94
WQ ROW_BUFFER_HIT: Channel 0 
  ROW_BUFFER_MISS:      38757
  FULL:     209744
OPTgen accesses: 2437
OPTgen hits: 700
OPTgen hit rate: 28.7239


