WARNING: physical memory size is smaller than virtual memory size.

*** ChampSim Multicore Out-of-Order Simulator ***
Warmup Instructions: 25000000
Simulation Instructions: 25000000
Number of CPUs: 1
Page size: 4096

Initialize Hawkeye state
Off-chip DRAM Size: 4 GiB Channels: 1 Width: 64-bit Data Race: 800 MT/s
Heartbeat CPU 0 instructions: 10000001 cycles: 2500071 heartbeat IPC: 4 cumulative IPC: 4 (Simulation time: 00 hr 00 min 31 sec)
Heartbeat CPU 0 instructions: 20000001 cycles: 5127947 heartbeat IPC: 3.805 cumulative IPC: 3.9 (Simulation time: 00 hr 01 min 03 sec)
Warmup finished CPU 0 instructions: 25000001 cycles: 6458980 cumulative IPC: 3.871 (Simulation time: 00 hr 01 min 18 sec)
Warmup complete CPU 0 instructions: 25000001 cycles: 6458980 cumulative IPC: 3.871 (Simulation time: 00 hr 01 min 18 sec)
Heartbeat CPU 0 instructions: 30000000 cycles: 16865190 heartbeat IPC: 0.852 cumulative IPC: 0.4805 (Simulation time: 00 hr 02 min 43 sec)
Heartbeat CPU 0 instructions: 40000000 cycles: 27047748 heartbeat IPC: 0.9821 cumulative IPC: 0.7286 (Simulation time: 00 hr 04 min 20 sec)
Heartbeat CPU 0 instructions: 50000003 cycles: 43022501 heartbeat IPC: 0.626 cumulative IPC: 0.6837 (Simulation time: 00 hr 06 min 37 sec)
Simulation finished CPU 0 instructions: 25000002 cycles: 36563522 cumulative IPC: 0.6837 (Simulation time: 00 hr 06 min 37 sec)
Simulation complete CPU 0 instructions: 25000002 cycles: 36563522 cumulative IPC: 0.6837 (Simulation time: 00 hr 06 min 37 sec)

ChampSim completed all CPUs

=== Simulation ===
CPU 0 runs ./traces/libquantum_1210B.trace.xz
Region of Interest Statistics

CPU 0 cumulative IPC: 0.6837 instructions: 25000002 cycles: 36563522
CPU 0 Branch Prediction Accuracy: 96.18% MPKI: 8.916 Average ROB Occupancy at Mispredict: 2.094
Branch type MPKI
BRANCH_DIRECT_JUMP: 8e-05
BRANCH_INDIRECT: 0
BRANCH_CONDITIONAL: 8.92
BRANCH_DIRECT_CALL: 0.0002
BRANCH_INDIRECT_CALL: 0
BRANCH_RETURN: 0.0002

LLC TOTAL        ACCESS:     838459 HIT:      30787 MISS:     807672
LLC LOAD         ACCESS:        719 HIT:         80 MISS:        639
LLC RFO          ACCESS:          8 HIT:          6 MISS:          2
LLC PREFETCH     ACCESS:     740078 HIT:      30677 MISS:     709401
LLC WRITE        ACCESS:      97624 HIT:         22 MISS:      97602
LLC TRANSLATION  ACCESS:         30 HIT:          2 MISS:         28
LLC PREFETCH REQUESTED:          0 ISSUED:          0 USEFUL:          0 USELESS:          0
LLC AVERAGE MISS LATENCY: 500.4 cycles
cpu0_DTLB TOTAL        ACCESS:    3113989 HIT:    3067828 MISS:      46161
cpu0_DTLB LOAD         ACCESS:    3113989 HIT:    3067828 MISS:      46161
cpu0_DTLB RFO          ACCESS:          0 HIT:          0 MISS:          0
cpu0_DTLB PREFETCH     ACCESS:          0 HIT:          0 MISS:          0
cpu0_DTLB WRITE        ACCESS:          0 HIT:          0 MISS:          0
cpu0_DTLB TRANSLATION  ACCESS:          0 HIT:          0 MISS:          0
cpu0_DTLB PREFETCH REQUESTED:          0 ISSUED:          0 USEFUL:          0 USELESS:          0
cpu0_DTLB AVERAGE MISS LATENCY: 2.273 cycles
cpu0_ITLB TOTAL        ACCESS:          7 HIT:          7 MISS:          0
cpu0_ITLB LOAD         ACCESS:          7 HIT:          7 MISS:          0
cpu0_ITLB RFO          ACCESS:          0 HIT:          0 MISS:          0
cpu0_ITLB PREFETCH     ACCESS:          0 HIT:          0 MISS:          0
cpu0_ITLB WRITE        ACCESS:          0 HIT:          0 MISS:          0
cpu0_ITLB TRANSLATION  ACCESS:          0 HIT:          0 MISS:          0
cpu0_ITLB PREFETCH REQUESTED:          0 ISSUED:          0 USEFUL:          0 USELESS:          0
cpu0_ITLB AVERAGE MISS LATENCY: -nan cycles
cpu0_L1D TOTAL        ACCESS:    6038717 HIT:     694881 MISS:    5343836
cpu0_L1D LOAD         ACCESS:    2913409 HIT:     374717 MISS:    2538692
cpu0_L1D RFO          ACCESS:          0 HIT:          0 MISS:          0
cpu0_L1D PREFETCH     ACCESS:    2913266 HIT:     108179 MISS:    2805087
cpu0_L1D WRITE        ACCESS:     200648 HIT:     200621 MISS:         27
cpu0_L1D TRANSLATION  ACCESS:      11394 HIT:      11364 MISS:         30
cpu0_L1D PREFETCH REQUESTED:    2913409 ISSUED:    2913265 USEFUL:     724255 USELESS:         35
cpu0_L1D AVERAGE MISS LATENCY: 55.84 cycles
cpu0_L1I TOTAL        ACCESS:          7 HIT:          3 MISS:          4
cpu0_L1I LOAD         ACCESS:          7 HIT:          3 MISS:          4
cpu0_L1I RFO          ACCESS:          0 HIT:          0 MISS:          0
cpu0_L1I PREFETCH     ACCESS:          0 HIT:          0 MISS:          0
cpu0_L1I WRITE        ACCESS:          0 HIT:          0 MISS:          0
cpu0_L1I TRANSLATION  ACCESS:          0 HIT:          0 MISS:          0
cpu0_L1I PREFETCH REQUESTED:          0 ISSUED:          0 USEFUL:          0 USELESS:          0
cpu0_L1I AVERAGE MISS LATENCY: 427.2 cycles
cpu0_L2C TOTAL        ACCESS:    2927161 HIT:     138893 MISS:    2788268
cpu0_L2C LOAD         ACCESS:       4481 HIT:         12 MISS:       4469
cpu0_L2C RFO          ACCESS:          8 HIT:          0 MISS:          8
cpu0_L2C PREFETCH     ACCESS:    2825055 HIT:      41294 MISS:    2783761
cpu0_L2C WRITE        ACCESS:      97587 HIT:      97587 MISS:          0
cpu0_L2C TRANSLATION  ACCESS:         30 HIT:          0 MISS:         30
cpu0_L2C PREFETCH REQUESTED:    2100766 ISSUED:    2100766 USEFUL:     103109 USELESS:     609164
cpu0_L2C AVERAGE MISS LATENCY: 149.4 cycles
cpu0_STLB TOTAL        ACCESS:      11394 HIT:          0 MISS:      11394
cpu0_STLB LOAD         ACCESS:      11394 HIT:          0 MISS:      11394
cpu0_STLB RFO          ACCESS:          0 HIT:          0 MISS:          0
cpu0_STLB PREFETCH     ACCESS:          0 HIT:          0 MISS:          0
cpu0_STLB WRITE        ACCESS:          0 HIT:          0 MISS:          0
cpu0_STLB TRANSLATION  ACCESS:          0 HIT:          0 MISS:          0
cpu0_STLB PREFETCH REQUESTED:          0 ISSUED:          0 USEFUL:          0 USELESS:          0
cpu0_STLB AVERAGE MISS LATENCY: 7.167 cycles

DRAM Statistics

Channel 0 RQ ROW_BUFFER_HIT:     607658
  ROW_BUFFER_MISS:      90499
 AVG DBUS CONGESTED CYCLE: 3.939
WQ ROW_BUFFER_HIT: Channel 0 
  ROW_BUFFER_MISS:      34353
  FULL:      63780
OPTgen accesses: 2
OPTgen hits: 0
OPTgen hit rate: 0


