WARNING: physical memory size is smaller than virtual memory size.

*** ChampSim Multicore Out-of-Order Simulator ***
Warmup Instructions: 25000000
Simulation Instructions: 25000000
Number of CPUs: 1
Page size: 4096

Initialize Hawkeye state
Off-chip DRAM Size: 4 GiB Channels: 1 Width: 64-bit Data Race: 800 MT/s
Heartbeat CPU 0 instructions: 10000002 cycles: 2565121 heartbeat IPC: 3.898 cumulative IPC: 3.898 (Simulation time: 00 hr 00 min 48 sec)
Heartbeat CPU 0 instructions: 20000002 cycles: 5099294 heartbeat IPC: 3.946 cumulative IPC: 3.922 (Simulation time: 00 hr 01 min 36 sec)
Warmup finished CPU 0 instructions: 25000000 cycles: 6373959 cumulative IPC: 3.922 (Simulation time: 00 hr 02 min 00 sec)
Warmup complete CPU 0 instructions: 25000000 cycles: 6373959 cumulative IPC: 3.922 (Simulation time: 00 hr 02 min 00 sec)
Heartbeat CPU 0 instructions: 30000000 cycles: 63591975 heartbeat IPC: 0.171 cumulative IPC: 0.08739 (Simulation time: 00 hr 07 min 31 sec)
Heartbeat CPU 0 instructions: 40000001 cycles: 192323065 heartbeat IPC: 0.07768 cumulative IPC: 0.08067 (Simulation time: 00 hr 16 min 54 sec)
Heartbeat CPU 0 instructions: 50000001 cycles: 316413275 heartbeat IPC: 0.08059 cumulative IPC: 0.08063 (Simulation time: 00 hr 21 min 22 sec)
Simulation finished CPU 0 instructions: 25000001 cycles: 310039317 cumulative IPC: 0.08063 (Simulation time: 00 hr 21 min 22 sec)
Simulation complete CPU 0 instructions: 25000001 cycles: 310039317 cumulative IPC: 0.08063 (Simulation time: 00 hr 21 min 22 sec)

ChampSim completed all CPUs

=== Simulation ===
CPU 0 runs ./traces/mcf_46B.trace.xz
Region of Interest Statistics

CPU 0 cumulative IPC: 0.08063 instructions: 25000001 cycles: 310039317
CPU 0 Branch Prediction Accuracy: 81.68% MPKI: 49.4 Average ROB Occupancy at Mispredict: 16.79
Branch type MPKI
BRANCH_DIRECT_JUMP: 0.752
BRANCH_INDIRECT: 0
BRANCH_CONDITIONAL: 48.6
BRANCH_DIRECT_CALL: 0
BRANCH_INDIRECT_CALL: 0
BRANCH_RETURN: 0

LLC TOTAL        ACCESS:    4301062 HIT:    1323730 MISS:    2977332
LLC LOAD         ACCESS:    1882008 HIT:     775746 MISS:    1106262
LLC RFO          ACCESS:      49769 HIT:      15386 MISS:      34383
LLC PREFETCH     ACCESS:    1596567 HIT:     301094 MISS:    1295473
LLC WRITE        ACCESS:     471139 HIT:     207406 MISS:     263733
LLC TRANSLATION  ACCESS:     301579 HIT:      24098 MISS:     277481
LLC PREFETCH REQUESTED:          0 ISSUED:          0 USEFUL:          0 USELESS:          0
LLC AVERAGE MISS LATENCY: 616.9 cycles
cpu0_DTLB TOTAL        ACCESS:    7329515 HIT:    4615587 MISS:    2713928
cpu0_DTLB LOAD         ACCESS:    7329515 HIT:    4615587 MISS:    2713928
cpu0_DTLB RFO          ACCESS:          0 HIT:          0 MISS:          0
cpu0_DTLB PREFETCH     ACCESS:          0 HIT:          0 MISS:          0
cpu0_DTLB WRITE        ACCESS:          0 HIT:          0 MISS:          0
cpu0_DTLB TRANSLATION  ACCESS:          0 HIT:          0 MISS:          0
cpu0_DTLB PREFETCH REQUESTED:          0 ISSUED:          0 USEFUL:          0 USELESS:          0
cpu0_DTLB AVERAGE MISS LATENCY: 63.56 cycles
cpu0_ITLB TOTAL        ACCESS:         17 HIT:         17 MISS:          0
cpu0_ITLB LOAD         ACCESS:         17 HIT:         17 MISS:          0
cpu0_ITLB RFO          ACCESS:          0 HIT:          0 MISS:          0
cpu0_ITLB PREFETCH     ACCESS:          0 HIT:          0 MISS:          0
cpu0_ITLB WRITE        ACCESS:          0 HIT:          0 MISS:          0
cpu0_ITLB TRANSLATION  ACCESS:          0 HIT:          0 MISS:          0
cpu0_ITLB PREFETCH REQUESTED:          0 ISSUED:          0 USEFUL:          0 USELESS:          0
cpu0_ITLB AVERAGE MISS LATENCY: -nan cycles
cpu0_L1D TOTAL        ACCESS:   14322211 HIT:    7161258 MISS:    7160953
cpu0_L1D LOAD         ACCESS:    6911053 HIT:    3467970 MISS:    3443083
cpu0_L1D RFO          ACCESS:          0 HIT:          0 MISS:          0
cpu0_L1D PREFETCH     ACCESS:    5676131 HIT:    2512998 MISS:    3163133
cpu0_L1D WRITE        ACCESS:    1315712 HIT:    1149814 MISS:     165898
cpu0_L1D TRANSLATION  ACCESS:     419315 HIT:      30476 MISS:     388839
cpu0_L1D PREFETCH REQUESTED:   21470434 ISSUED:    5676131 USEFUL:     258555 USELESS:    1590617
cpu0_L1D AVERAGE MISS LATENCY: 267 cycles
cpu0_L1I TOTAL        ACCESS:         17 HIT:         17 MISS:          0
cpu0_L1I LOAD         ACCESS:         17 HIT:         17 MISS:          0
cpu0_L1I RFO          ACCESS:          0 HIT:          0 MISS:          0
cpu0_L1I PREFETCH     ACCESS:          0 HIT:          0 MISS:          0
cpu0_L1I WRITE        ACCESS:          0 HIT:          0 MISS:          0
cpu0_L1I TRANSLATION  ACCESS:          0 HIT:          0 MISS:          0
cpu0_L1I PREFETCH REQUESTED:          0 ISSUED:          0 USEFUL:          0 USELESS:          0
cpu0_L1I AVERAGE MISS LATENCY: -nan cycles
cpu0_L2C TOTAL        ACCESS:    5734085 HIT:    1903990 MISS:    3830095
cpu0_L2C LOAD         ACCESS:    2717785 HIT:     835745 MISS:    1882040
cpu0_L2C RFO          ACCESS:     103756 HIT:      53987 MISS:      49769
cpu0_L2C PREFETCH     ACCESS:    1858848 HIT:     262189 MISS:    1596659
cpu0_L2C WRITE        ACCESS:     665118 HIT:     665070 MISS:         48
cpu0_L2C TRANSLATION  ACCESS:     388578 HIT:      86999 MISS:     301579
cpu0_L2C PREFETCH REQUESTED:       9577 ISSUED:       9577 USEFUL:       1076 USELESS:       2060
cpu0_L2C AVERAGE MISS LATENCY: 500.2 cycles
cpu0_STLB TOTAL        ACCESS:    2313357 HIT:    1992508 MISS:     320849
cpu0_STLB LOAD         ACCESS:    2313357 HIT:    1992508 MISS:     320849
cpu0_STLB RFO          ACCESS:          0 HIT:          0 MISS:          0
cpu0_STLB PREFETCH     ACCESS:          0 HIT:          0 MISS:          0
cpu0_STLB WRITE        ACCESS:          0 HIT:          0 MISS:          0
cpu0_STLB TRANSLATION  ACCESS:          0 HIT:          0 MISS:          0
cpu0_STLB PREFETCH REQUESTED:          0 ISSUED:          0 USEFUL:          0 USELESS:          0
cpu0_STLB AVERAGE MISS LATENCY: 483.2 cycles

DRAM Statistics

Channel 0 RQ ROW_BUFFER_HIT:      89402
  ROW_BUFFER_MISS:    2622523
 AVG DBUS CONGESTED CYCLE: 3.954
WQ ROW_BUFFER_HIT: Channel 0 
  ROW_BUFFER_MISS:       6430
  FULL:     408805
OPTgen accesses: 18805
OPTgen hits: 9288
OPTgen hit rate: 49.3912


