WARNING: physical memory size is smaller than virtual memory size.

*** ChampSim Multicore Out-of-Order Simulator ***
Warmup Instructions: 25000000
Simulation Instructions: 25000000
Number of CPUs: 1
Page size: 4096

Initialize Hawkeye state
Off-chip DRAM Size: 4 GiB Channels: 1 Width: 64-bit Data Race: 800 MT/s
Heartbeat CPU 0 instructions: 10000002 cycles: 2514591 heartbeat IPC: 3.977 cumulative IPC: 3.977 (Simulation time: 00 hr 00 min 47 sec)
Heartbeat CPU 0 instructions: 20000002 cycles: 5020985 heartbeat IPC: 3.99 cumulative IPC: 3.983 (Simulation time: 00 hr 01 min 35 sec)
Warmup finished CPU 0 instructions: 25000001 cycles: 6271125 cumulative IPC: 3.987 (Simulation time: 00 hr 01 min 59 sec)
Warmup complete CPU 0 instructions: 25000001 cycles: 6271125 cumulative IPC: 3.987 (Simulation time: 00 hr 01 min 59 sec)
Heartbeat CPU 0 instructions: 30000000 cycles: 79634999 heartbeat IPC: 0.134 cumulative IPC: 0.06815 (Simulation time: 00 hr 08 min 58 sec)
Heartbeat CPU 0 instructions: 40000003 cycles: 232886803 heartbeat IPC: 0.06525 cumulative IPC: 0.06619 (Simulation time: 00 hr 18 min 24 sec)
Heartbeat CPU 0 instructions: 50000002 cycles: 377215733 heartbeat IPC: 0.06929 cumulative IPC: 0.0674 (Simulation time: 00 hr 23 min 17 sec)
Simulation finished CPU 0 instructions: 25000001 cycles: 370944609 cumulative IPC: 0.0674 (Simulation time: 00 hr 23 min 17 sec)
Simulation complete CPU 0 instructions: 25000001 cycles: 370944609 cumulative IPC: 0.0674 (Simulation time: 00 hr 23 min 17 sec)

ChampSim completed all CPUs

=== Simulation ===
CPU 0 runs ./traces/mcf_250B.trace.xz
Region of Interest Statistics

CPU 0 cumulative IPC: 0.0674 instructions: 25000001 cycles: 370944609
CPU 0 Branch Prediction Accuracy: 90.47% MPKI: 29.3 Average ROB Occupancy at Mispredict: 18.92
Branch type MPKI
BRANCH_DIRECT_JUMP: 0.0611
BRANCH_INDIRECT: 0
BRANCH_CONDITIONAL: 29.2
BRANCH_DIRECT_CALL: 0
BRANCH_INDIRECT_CALL: 0
BRANCH_RETURN: 0

LLC TOTAL        ACCESS:    6454948 HIT:    3365601 MISS:    3089347
LLC LOAD         ACCESS:    3175470 HIT:    2216873 MISS:     958597
LLC RFO          ACCESS:       6047 HIT:       1336 MISS:       4711
LLC PREFETCH     ACCESS:    3098695 HIT:    1110072 MISS:    1988623
LLC WRITE        ACCESS:      60040 HIT:      32277 MISS:      27763
LLC TRANSLATION  ACCESS:     114696 HIT:       5043 MISS:     109653
LLC PREFETCH REQUESTED:          0 ISSUED:          0 USEFUL:          0 USELESS:          0
LLC AVERAGE MISS LATENCY: 843 cycles
cpu0_DTLB TOTAL        ACCESS:    6882773 HIT:     582898 MISS:    6299875
cpu0_DTLB LOAD         ACCESS:    6882773 HIT:     582898 MISS:    6299875
cpu0_DTLB RFO          ACCESS:          0 HIT:          0 MISS:          0
cpu0_DTLB PREFETCH     ACCESS:          0 HIT:          0 MISS:          0
cpu0_DTLB WRITE        ACCESS:          0 HIT:          0 MISS:          0
cpu0_DTLB TRANSLATION  ACCESS:          0 HIT:          0 MISS:          0
cpu0_DTLB PREFETCH REQUESTED:          0 ISSUED:          0 USEFUL:          0 USELESS:          0
cpu0_DTLB AVERAGE MISS LATENCY: 18.05 cycles
cpu0_ITLB TOTAL        ACCESS:          0 HIT:          0 MISS:          0
cpu0_ITLB LOAD         ACCESS:          0 HIT:          0 MISS:          0
cpu0_ITLB RFO          ACCESS:          0 HIT:          0 MISS:          0
cpu0_ITLB PREFETCH     ACCESS:          0 HIT:          0 MISS:          0
cpu0_ITLB WRITE        ACCESS:          0 HIT:          0 MISS:          0
cpu0_ITLB TRANSLATION  ACCESS:          0 HIT:          0 MISS:          0
cpu0_ITLB PREFETCH REQUESTED:          0 ISSUED:          0 USEFUL:          0 USELESS:          0
cpu0_ITLB AVERAGE MISS LATENCY: -nan cycles
cpu0_L1D TOTAL        ACCESS:   14182992 HIT:     601101 MISS:   13581891
cpu0_L1D LOAD         ACCESS:    7326199 HIT:     301745 MISS:    7024454
cpu0_L1D RFO          ACCESS:          0 HIT:          0 MISS:          0
cpu0_L1D PREFETCH     ACCESS:    6630924 HIT:     208697 MISS:    6422227
cpu0_L1D WRITE        ACCESS:      95182 HIT:      87138 MISS:       8044
cpu0_L1D TRANSLATION  ACCESS:     130687 HIT:       3521 MISS:     127166
cpu0_L1D PREFETCH REQUESTED:   15195550 ISSUED:    6630916 USEFUL:      36884 USELESS:    3722260
cpu0_L1D AVERAGE MISS LATENCY: 207.7 cycles
cpu0_L1I TOTAL        ACCESS:          0 HIT:          0 MISS:          0
cpu0_L1I LOAD         ACCESS:          0 HIT:          0 MISS:          0
cpu0_L1I RFO          ACCESS:          0 HIT:          0 MISS:          0
cpu0_L1I PREFETCH     ACCESS:          0 HIT:          0 MISS:          0
cpu0_L1I WRITE        ACCESS:          0 HIT:          0 MISS:          0
cpu0_L1I TRANSLATION  ACCESS:          0 HIT:          0 MISS:          0
cpu0_L1I PREFETCH REQUESTED:          0 ISSUED:          0 USEFUL:          0 USELESS:          0
cpu0_L1I AVERAGE MISS LATENCY: -nan cycles
cpu0_L2C TOTAL        ACCESS:    8792114 HIT:    2397173 MISS:    6394941
cpu0_L2C LOAD         ACCESS:    4836327 HIT:    1660845 MISS:    3175482
cpu0_L2C RFO          ACCESS:       7074 HIT:       1027 MISS:       6047
cpu0_L2C PREFETCH     ACCESS:    3760242 HIT:     661527 MISS:    3098715
cpu0_L2C WRITE        ACCESS:      61471 HIT:      61470 MISS:          1
cpu0_L2C TRANSLATION  ACCESS:     127000 HIT:      12304 MISS:     114696
cpu0_L2C PREFETCH REQUESTED:        932 ISSUED:        932 USEFUL:        225 USELESS:        507
cpu0_L2C AVERAGE MISS LATENCY: 427.7 cycles
cpu0_STLB TOTAL        ACCESS:    4586309 HIT:    4491851 MISS:      94458
cpu0_STLB LOAD         ACCESS:    4586309 HIT:    4491851 MISS:      94458
cpu0_STLB RFO          ACCESS:          0 HIT:          0 MISS:          0
cpu0_STLB PREFETCH     ACCESS:          0 HIT:          0 MISS:          0
cpu0_STLB WRITE        ACCESS:          0 HIT:          0 MISS:          0
cpu0_STLB TRANSLATION  ACCESS:          0 HIT:          0 MISS:          0
cpu0_STLB PREFETCH REQUESTED:          0 ISSUED:          0 USEFUL:          0 USELESS:          0
cpu0_STLB AVERAGE MISS LATENCY: 853.4 cycles

DRAM Statistics

Channel 0 RQ ROW_BUFFER_HIT:      41509
  ROW_BUFFER_MISS:    3019546
 AVG DBUS CONGESTED CYCLE: 3.974
WQ ROW_BUFFER_HIT: Channel 0 
  ROW_BUFFER_MISS:       1927
  FULL:      55064
OPTgen accesses: 28550
OPTgen hits: 20008
OPTgen hit rate: 70.0806


