WARNING: physical memory size is smaller than virtual memory size.

*** ChampSim Multicore Out-of-Order Simulator ***
Warmup Instructions: 25000000
Simulation Instructions: 25000000
Number of CPUs: 1
Page size: 4096

Initialize Hawkeye state
Off-chip DRAM Size: 4 GiB Channels: 1 Width: 64-bit Data Race: 800 MT/s
Heartbeat CPU 0 instructions: 10000000 cycles: 2522443 heartbeat IPC: 3.964 cumulative IPC: 3.964 (Simulation time: 00 hr 00 min 49 sec)
Heartbeat CPU 0 instructions: 20000001 cycles: 5044570 heartbeat IPC: 3.965 cumulative IPC: 3.965 (Simulation time: 00 hr 01 min 37 sec)
Warmup finished CPU 0 instructions: 25000000 cycles: 6310413 cumulative IPC: 3.962 (Simulation time: 00 hr 02 min 01 sec)
Warmup complete CPU 0 instructions: 25000000 cycles: 6310413 cumulative IPC: 3.962 (Simulation time: 00 hr 02 min 01 sec)
Heartbeat CPU 0 instructions: 30000003 cycles: 70498292 heartbeat IPC: 0.1528 cumulative IPC: 0.0779 (Simulation time: 00 hr 07 min 55 sec)
Heartbeat CPU 0 instructions: 40000000 cycles: 214777139 heartbeat IPC: 0.06931 cumulative IPC: 0.07195 (Simulation time: 00 hr 18 min 27 sec)
Heartbeat CPU 0 instructions: 50000000 cycles: 352003549 heartbeat IPC: 0.07287 cumulative IPC: 0.07232 (Simulation time: 00 hr 23 min 10 sec)
Simulation finished CPU 0 instructions: 25000000 cycles: 345693137 cumulative IPC: 0.07232 (Simulation time: 00 hr 23 min 10 sec)
Simulation complete CPU 0 instructions: 25000000 cycles: 345693137 cumulative IPC: 0.07232 (Simulation time: 00 hr 23 min 10 sec)

ChampSim completed all CPUs

=== Simulation ===
CPU 0 runs ./traces/mcf_158B.trace.xz
Region of Interest Statistics

CPU 0 cumulative IPC: 0.07232 instructions: 25000000 cycles: 345693137
CPU 0 Branch Prediction Accuracy: 82.21% MPKI: 49.39 Average ROB Occupancy at Mispredict: 15.04
Branch type MPKI
BRANCH_DIRECT_JUMP: 1.13
BRANCH_INDIRECT: 0
BRANCH_CONDITIONAL: 48.3
BRANCH_DIRECT_CALL: 0
BRANCH_INDIRECT_CALL: 0
BRANCH_RETURN: 0

LLC TOTAL        ACCESS:    5488568 HIT:    2230915 MISS:    3257653
LLC LOAD         ACCESS:    2338979 HIT:    1283179 MISS:    1055800
LLC RFO          ACCESS:      44645 HIT:      13778 MISS:      30867
LLC PREFETCH     ACCESS:    2349050 HIT:     710658 MISS:    1638392
LLC WRITE        ACCESS:     453374 HIT:     198518 MISS:     254856
LLC TRANSLATION  ACCESS:     302520 HIT:      24782 MISS:     277738
LLC PREFETCH REQUESTED:          0 ISSUED:          0 USEFUL:          0 USELESS:          0
LLC AVERAGE MISS LATENCY: 530.8 cycles
cpu0_DTLB TOTAL        ACCESS:    7711170 HIT:    4065130 MISS:    3646040
cpu0_DTLB LOAD         ACCESS:    7711170 HIT:    4065130 MISS:    3646040
cpu0_DTLB RFO          ACCESS:          0 HIT:          0 MISS:          0
cpu0_DTLB PREFETCH     ACCESS:          0 HIT:          0 MISS:          0
cpu0_DTLB WRITE        ACCESS:          0 HIT:          0 MISS:          0
cpu0_DTLB TRANSLATION  ACCESS:          0 HIT:          0 MISS:          0
cpu0_DTLB PREFETCH REQUESTED:          0 ISSUED:          0 USEFUL:          0 USELESS:          0
cpu0_DTLB AVERAGE MISS LATENCY: 46.22 cycles
cpu0_ITLB TOTAL        ACCESS:          0 HIT:          0 MISS:          0
cpu0_ITLB LOAD         ACCESS:          0 HIT:          0 MISS:          0
cpu0_ITLB RFO          ACCESS:          0 HIT:          0 MISS:          0
cpu0_ITLB PREFETCH     ACCESS:          0 HIT:          0 MISS:          0
cpu0_ITLB WRITE        ACCESS:          0 HIT:          0 MISS:          0
cpu0_ITLB TRANSLATION  ACCESS:          0 HIT:          0 MISS:          0
cpu0_ITLB PREFETCH REQUESTED:          0 ISSUED:          0 USEFUL:          0 USELESS:          0
cpu0_ITLB AVERAGE MISS LATENCY: -nan cycles
cpu0_L1D TOTAL        ACCESS:   15858402 HIT:    5941783 MISS:    9916619
cpu0_L1D LOAD         ACCESS:    7486942 HIT:    2788297 MISS:    4698645
cpu0_L1D RFO          ACCESS:          0 HIT:          0 MISS:          0
cpu0_L1D PREFETCH     ACCESS:    6806460 HIT:    2049142 MISS:    4757318
cpu0_L1D WRITE        ACCESS:    1159928 HIT:    1075365 MISS:      84563
cpu0_L1D TRANSLATION  ACCESS:     405072 HIT:      28979 MISS:     376093
cpu0_L1D PREFETCH REQUESTED:    9818393 ISSUED:    6806452 USEFUL:     205176 USELESS:    2555756
cpu0_L1D AVERAGE MISS LATENCY: 188.5 cycles
cpu0_L1I TOTAL        ACCESS:          0 HIT:          0 MISS:          0
cpu0_L1I LOAD         ACCESS:          0 HIT:          0 MISS:          0
cpu0_L1I RFO          ACCESS:          0 HIT:          0 MISS:          0
cpu0_L1I PREFETCH     ACCESS:          0 HIT:          0 MISS:          0
cpu0_L1I WRITE        ACCESS:          0 HIT:          0 MISS:          0
cpu0_L1I TRANSLATION  ACCESS:          0 HIT:          0 MISS:          0
cpu0_L1I PREFETCH REQUESTED:          0 ISSUED:          0 USEFUL:          0 USELESS:          0
cpu0_L1I AVERAGE MISS LATENCY: -nan cycles
cpu0_L2C TOTAL        ACCESS:    7023883 HIT:    1988341 MISS:    5035542
cpu0_L2C LOAD         ACCESS:    3230407 HIT:     891357 MISS:    2339050
cpu0_L2C RFO          ACCESS:      64380 HIT:      19735 MISS:      44645
cpu0_L2C PREFETCH     ACCESS:    2771693 HIT:     422422 MISS:    2349271
cpu0_L2C WRITE        ACCESS:     581715 HIT:     581659 MISS:         56
cpu0_L2C TRANSLATION  ACCESS:     375688 HIT:      73168 MISS:     302520
cpu0_L2C PREFETCH REQUESTED:      10552 ISSUED:      10552 USEFUL:       1245 USELESS:       2714
cpu0_L2C AVERAGE MISS LATENCY: 364 cycles
cpu0_STLB TOTAL        ACCESS:    2614604 HIT:    2321457 MISS:     293147
cpu0_STLB LOAD         ACCESS:    2614604 HIT:    2321457 MISS:     293147
cpu0_STLB RFO          ACCESS:          0 HIT:          0 MISS:          0
cpu0_STLB PREFETCH     ACCESS:          0 HIT:          0 MISS:          0
cpu0_STLB WRITE        ACCESS:          0 HIT:          0 MISS:          0
cpu0_STLB TRANSLATION  ACCESS:          0 HIT:          0 MISS:          0
cpu0_STLB PREFETCH REQUESTED:          0 ISSUED:          0 USEFUL:          0 USELESS:          0
cpu0_STLB AVERAGE MISS LATENCY: 512.1 cycles

DRAM Statistics

Channel 0 RQ ROW_BUFFER_HIT:     117620
  ROW_BUFFER_MISS:    2882072
 AVG DBUS CONGESTED CYCLE: 3.958
WQ ROW_BUFFER_HIT: Channel 0 
  ROW_BUFFER_MISS:       6555
  FULL:     377054
OPTgen accesses: 26120
OPTgen hits: 16304
OPTgen hit rate: 62.4197


