WARNING: physical memory size is smaller than virtual memory size.

*** ChampSim Multicore Out-of-Order Simulator ***
Warmup Instructions: 25000000
Simulation Instructions: 25000000
Number of CPUs: 1
Page size: 4096

Initialize Hawkeye state
Off-chip DRAM Size: 4 GiB Channels: 1 Width: 64-bit Data Race: 800 MT/s
Heartbeat CPU 0 instructions: 10000002 cycles: 2500079 heartbeat IPC: 4 cumulative IPC: 4 (Simulation time: 00 hr 00 min 36 sec)
Heartbeat CPU 0 instructions: 20000002 cycles: 5000079 heartbeat IPC: 4 cumulative IPC: 4 (Simulation time: 00 hr 01 min 12 sec)
Warmup finished CPU 0 instructions: 25000002 cycles: 6250080 cumulative IPC: 4 (Simulation time: 00 hr 01 min 31 sec)
Warmup complete CPU 0 instructions: 25000002 cycles: 6250080 cumulative IPC: 4 (Simulation time: 00 hr 01 min 31 sec)
Heartbeat CPU 0 instructions: 30000000 cycles: 13914398 heartbeat IPC: 1.122 cumulative IPC: 0.6524 (Simulation time: 00 hr 02 min 41 sec)
Heartbeat CPU 0 instructions: 40000003 cycles: 29428977 heartbeat IPC: 0.6446 cumulative IPC: 0.6471 (Simulation time: 00 hr 05 min 02 sec)
Heartbeat CPU 0 instructions: 50000002 cycles: 44972116 heartbeat IPC: 0.6434 cumulative IPC: 0.6456 (Simulation time: 00 hr 07 min 26 sec)
Simulation finished CPU 0 instructions: 25000000 cycles: 38722037 cumulative IPC: 0.6456 (Simulation time: 00 hr 07 min 26 sec)
Simulation complete CPU 0 instructions: 25000000 cycles: 38722037 cumulative IPC: 0.6456 (Simulation time: 00 hr 07 min 26 sec)

ChampSim completed all CPUs

=== Simulation ===
CPU 0 runs ./traces/milc_744B.trace.xz
Region of Interest Statistics

CPU 0 cumulative IPC: 0.6456 instructions: 25000000 cycles: 38722037
CPU 0 Branch Prediction Accuracy: 85.71% MPKI: 2.288 Average ROB Occupancy at Mispredict: 352
Branch type MPKI
BRANCH_DIRECT_JUMP: 0
BRANCH_INDIRECT: 0
BRANCH_CONDITIONAL: 2.29
BRANCH_DIRECT_CALL: 0
BRANCH_INDIRECT_CALL: 0
BRANCH_RETURN: 0

LLC TOTAL        ACCESS:     569672 HIT:       3441 MISS:     566231
LLC LOAD         ACCESS:     269054 HIT:          0 MISS:     269054
LLC RFO          ACCESS:          0 HIT:          0 MISS:          0
LLC PREFETCH     ACCESS:     213990 HIT:          1 MISS:     213989
LLC WRITE        ACCESS:      85119 HIT:       3382 MISS:      81737
LLC TRANSLATION  ACCESS:       1509 HIT:         58 MISS:       1451
LLC PREFETCH REQUESTED:          0 ISSUED:          0 USEFUL:          0 USELESS:          0
LLC AVERAGE MISS LATENCY: 386.4 cycles
cpu0_DTLB TOTAL        ACCESS:    4351214 HIT:    3893691 MISS:     457523
cpu0_DTLB LOAD         ACCESS:    4351214 HIT:    3893691 MISS:     457523
cpu0_DTLB RFO          ACCESS:          0 HIT:          0 MISS:          0
cpu0_DTLB PREFETCH     ACCESS:          0 HIT:          0 MISS:          0
cpu0_DTLB WRITE        ACCESS:          0 HIT:          0 MISS:          0
cpu0_DTLB TRANSLATION  ACCESS:          0 HIT:          0 MISS:          0
cpu0_DTLB PREFETCH REQUESTED:          0 ISSUED:          0 USEFUL:          0 USELESS:          0
cpu0_DTLB AVERAGE MISS LATENCY: 13.11 cycles
cpu0_ITLB TOTAL        ACCESS:          0 HIT:          0 MISS:          0
cpu0_ITLB LOAD         ACCESS:          0 HIT:          0 MISS:          0
cpu0_ITLB RFO          ACCESS:          0 HIT:          0 MISS:          0
cpu0_ITLB PREFETCH     ACCESS:          0 HIT:          0 MISS:          0
cpu0_ITLB WRITE        ACCESS:          0 HIT:          0 MISS:          0
cpu0_ITLB TRANSLATION  ACCESS:          0 HIT:          0 MISS:          0
cpu0_ITLB PREFETCH REQUESTED:          0 ISSUED:          0 USEFUL:          0 USELESS:          0
cpu0_ITLB AVERAGE MISS LATENCY: -nan cycles
cpu0_L1D TOTAL        ACCESS:    8279782 HIT:    4059679 MISS:    4220103
cpu0_L1D LOAD         ACCESS:    4029113 HIT:    1369993 MISS:    2659120
cpu0_L1D RFO          ACCESS:          0 HIT:          0 MISS:          0
cpu0_L1D PREFETCH     ACCESS:    2588827 HIT:    1030302 MISS:    1558525
cpu0_L1D WRITE        ACCESS:    1629029 HIT:    1629029 MISS:          0
cpu0_L1D TRANSLATION  ACCESS:      32813 HIT:      30355 MISS:       2458
cpu0_L1D PREFETCH REQUESTED:    4029113 ISSUED:    2588818 USEFUL:      31480 USELESS:      90302
cpu0_L1D AVERAGE MISS LATENCY: 34.14 cycles
cpu0_L1I TOTAL        ACCESS:          0 HIT:          0 MISS:          0
cpu0_L1I LOAD         ACCESS:          0 HIT:          0 MISS:          0
cpu0_L1I RFO          ACCESS:          0 HIT:          0 MISS:          0
cpu0_L1I PREFETCH     ACCESS:          0 HIT:          0 MISS:          0
cpu0_L1I WRITE        ACCESS:          0 HIT:          0 MISS:          0
cpu0_L1I TRANSLATION  ACCESS:          0 HIT:          0 MISS:          0
cpu0_L1I PREFETCH REQUESTED:          0 ISSUED:          0 USEFUL:          0 USELESS:          0
cpu0_L1I AVERAGE MISS LATENCY: -nan cycles
cpu0_L2C TOTAL        ACCESS:     681801 HIT:     193553 MISS:     488248
cpu0_L2C LOAD         ACCESS:     318915 HIT:      49851 MISS:     269064
cpu0_L2C RFO          ACCESS:          0 HIT:          0 MISS:          0
cpu0_L2C PREFETCH     ACCESS:     274730 HIT:      60713 MISS:     214017
cpu0_L2C WRITE        ACCESS:      85735 HIT:      82077 MISS:       3658
cpu0_L2C TRANSLATION  ACCESS:       2421 HIT:        912 MISS:       1509
cpu0_L2C PREFETCH REQUESTED:     153030 ISSUED:     153030 USEFUL:      50716 USELESS:      42691
cpu0_L2C AVERAGE MISS LATENCY: 468.9 cycles
cpu0_STLB TOTAL        ACCESS:      33518 HIT:        771 MISS:      32747
cpu0_STLB LOAD         ACCESS:      33518 HIT:        771 MISS:      32747
cpu0_STLB RFO          ACCESS:          0 HIT:          0 MISS:          0
cpu0_STLB PREFETCH     ACCESS:          0 HIT:          0 MISS:          0
cpu0_STLB WRITE        ACCESS:          0 HIT:          0 MISS:          0
cpu0_STLB TRANSLATION  ACCESS:          0 HIT:          0 MISS:          0
cpu0_STLB PREFETCH REQUESTED:          0 ISSUED:          0 USEFUL:          0 USELESS:          0
cpu0_STLB AVERAGE MISS LATENCY: 221.6 cycles

DRAM Statistics

Channel 0 RQ ROW_BUFFER_HIT:     208530
  ROW_BUFFER_MISS:     275960
 AVG DBUS CONGESTED CYCLE: 3.881
WQ ROW_BUFFER_HIT: Channel 0 
  ROW_BUFFER_MISS:       1773
  FULL:      83283
OPTgen accesses: 2943
OPTgen hits: 3
OPTgen hit rate: 0.101937


