WARNING: physical memory size is smaller than virtual memory size.

*** ChampSim Multicore Out-of-Order Simulator ***
Warmup Instructions: 25000000
Simulation Instructions: 25000000
Number of CPUs: 1
Page size: 4096

Initialize Hawkeye state
Off-chip DRAM Size: 4 GiB Channels: 1 Width: 64-bit Data Race: 800 MT/s
Heartbeat CPU 0 instructions: 10000000 cycles: 2515828 heartbeat IPC: 3.975 cumulative IPC: 3.975 (Simulation time: 00 hr 00 min 42 sec)
Heartbeat CPU 0 instructions: 20000001 cycles: 5033053 heartbeat IPC: 3.973 cumulative IPC: 3.974 (Simulation time: 00 hr 01 min 24 sec)
Warmup finished CPU 0 instructions: 25000000 cycles: 6291376 cumulative IPC: 3.974 (Simulation time: 00 hr 01 min 46 sec)
Warmup complete CPU 0 instructions: 25000000 cycles: 6291376 cumulative IPC: 3.974 (Simulation time: 00 hr 01 min 46 sec)
Heartbeat CPU 0 instructions: 30000002 cycles: 25892766 heartbeat IPC: 0.4794 cumulative IPC: 0.2551 (Simulation time: 00 hr 03 min 54 sec)
Heartbeat CPU 0 instructions: 40000002 cycles: 65062244 heartbeat IPC: 0.2553 cumulative IPC: 0.2552 (Simulation time: 00 hr 08 min 10 sec)
Heartbeat CPU 0 instructions: 50000001 cycles: 100719616 heartbeat IPC: 0.2804 cumulative IPC: 0.2648 (Simulation time: 00 hr 11 min 33 sec)
Simulation finished CPU 0 instructions: 25000001 cycles: 94428241 cumulative IPC: 0.2648 (Simulation time: 00 hr 11 min 33 sec)
Simulation complete CPU 0 instructions: 25000001 cycles: 94428241 cumulative IPC: 0.2648 (Simulation time: 00 hr 11 min 33 sec)

ChampSim completed all CPUs

=== Simulation ===
CPU 0 runs ./traces/omnetpp_340B.trace.xz
Region of Interest Statistics

CPU 0 cumulative IPC: 0.2648 instructions: 25000001 cycles: 94428241
CPU 0 Branch Prediction Accuracy: 92.7% MPKI: 17.4 Average ROB Occupancy at Mispredict: 50.55
Branch type MPKI
BRANCH_DIRECT_JUMP: 0.00016
BRANCH_INDIRECT: 0.0548
BRANCH_CONDITIONAL: 17.3
BRANCH_DIRECT_CALL: 4e-05
BRANCH_INDIRECT_CALL: 0.063
BRANCH_RETURN: 0.0296

LLC TOTAL        ACCESS:    1125557 HIT:     210702 MISS:     914855
LLC LOAD         ACCESS:     376500 HIT:      50026 MISS:     326474
LLC RFO          ACCESS:      55959 HIT:       7012 MISS:      48947
LLC PREFETCH     ACCESS:     375683 HIT:      51886 MISS:     323797
LLC WRITE        ACCESS:     237256 HIT:      94883 MISS:     142373
LLC TRANSLATION  ACCESS:      80159 HIT:       6895 MISS:      73264
LLC PREFETCH REQUESTED:          0 ISSUED:          0 USEFUL:          0 USELESS:          0
LLC AVERAGE MISS LATENCY: 384.2 cycles
cpu0_DTLB TOTAL        ACCESS:    7713674 HIT:    7068531 MISS:     645143
cpu0_DTLB LOAD         ACCESS:    7713674 HIT:    7068531 MISS:     645143
cpu0_DTLB RFO          ACCESS:          0 HIT:          0 MISS:          0
cpu0_DTLB PREFETCH     ACCESS:          0 HIT:          0 MISS:          0
cpu0_DTLB WRITE        ACCESS:          0 HIT:          0 MISS:          0
cpu0_DTLB TRANSLATION  ACCESS:          0 HIT:          0 MISS:          0
cpu0_DTLB PREFETCH REQUESTED:          0 ISSUED:          0 USEFUL:          0 USELESS:          0
cpu0_DTLB AVERAGE MISS LATENCY: 64.04 cycles
cpu0_ITLB TOTAL        ACCESS:    1067577 HIT:    1065602 MISS:       1975
cpu0_ITLB LOAD         ACCESS:    1067577 HIT:    1065602 MISS:       1975
cpu0_ITLB RFO          ACCESS:          0 HIT:          0 MISS:          0
cpu0_ITLB PREFETCH     ACCESS:          0 HIT:          0 MISS:          0
cpu0_ITLB WRITE        ACCESS:          0 HIT:          0 MISS:          0
cpu0_ITLB TRANSLATION  ACCESS:          0 HIT:          0 MISS:          0
cpu0_ITLB PREFETCH REQUESTED:          0 ISSUED:          0 USEFUL:          0 USELESS:          0
cpu0_ITLB AVERAGE MISS LATENCY: 36.72 cycles
cpu0_L1D TOTAL        ACCESS:   14041336 HIT:   11843407 MISS:    2197929
cpu0_L1D LOAD         ACCESS:    5092108 HIT:    4239378 MISS:     852730
cpu0_L1D RFO          ACCESS:          0 HIT:          0 MISS:          0
cpu0_L1D PREFETCH     ACCESS:    4572889 HIT:    3651660 MISS:     921229
cpu0_L1D WRITE        ACCESS:    4257713 HIT:    3945926 MISS:     311787
cpu0_L1D TRANSLATION  ACCESS:     118626 HIT:       6443 MISS:     112183
cpu0_L1D PREFETCH REQUESTED:    5415231 ISSUED:    4572882 USEFUL:     131852 USELESS:     342489
cpu0_L1D AVERAGE MISS LATENCY: 161.7 cycles
cpu0_L1I TOTAL        ACCESS:    1148810 HIT:    1146091 MISS:       2719
cpu0_L1I LOAD         ACCESS:    1148810 HIT:    1146091 MISS:       2719
cpu0_L1I RFO          ACCESS:          0 HIT:          0 MISS:          0
cpu0_L1I PREFETCH     ACCESS:          0 HIT:          0 MISS:          0
cpu0_L1I WRITE        ACCESS:          0 HIT:          0 MISS:          0
cpu0_L1I TRANSLATION  ACCESS:          0 HIT:          0 MISS:          0
cpu0_L1I PREFETCH REQUESTED:          0 ISSUED:          0 USEFUL:          0 USELESS:          0
cpu0_L1I AVERAGE MISS LATENCY: 98.21 cycles
cpu0_L2C TOTAL        ACCESS:    1494568 HIT:     603281 MISS:     891287
cpu0_L2C LOAD         ACCESS:     515577 HIT:     138612 MISS:     376965
cpu0_L2C RFO          ACCESS:      71105 HIT:      15146 MISS:      55959
cpu0_L2C PREFETCH     ACCESS:     495414 HIT:     119045 MISS:     376369
cpu0_L2C WRITE        ACCESS:     300616 HIT:     298781 MISS:       1835
cpu0_L2C TRANSLATION  ACCESS:     111856 HIT:      31697 MISS:      80159
cpu0_L2C PREFETCH REQUESTED:      21031 ISSUED:      21031 USEFUL:       3892 USELESS:      13118
cpu0_L2C AVERAGE MISS LATENCY: 414.4 cycles
cpu0_STLB TOTAL        ACCESS:     455707 HIT:     341954 MISS:     113753
cpu0_STLB LOAD         ACCESS:     455707 HIT:     341954 MISS:     113753
cpu0_STLB RFO          ACCESS:          0 HIT:          0 MISS:          0
cpu0_STLB PREFETCH     ACCESS:          0 HIT:          0 MISS:          0
cpu0_STLB WRITE        ACCESS:          0 HIT:          0 MISS:          0
cpu0_STLB TRANSLATION  ACCESS:          0 HIT:          0 MISS:          0
cpu0_STLB PREFETCH REQUESTED:          0 ISSUED:          0 USEFUL:          0 USELESS:          0
cpu0_STLB AVERAGE MISS LATENCY: 346.1 cycles

DRAM Statistics

Channel 0 RQ ROW_BUFFER_HIT:     109409
  ROW_BUFFER_MISS:     662610
 AVG DBUS CONGESTED CYCLE: 3.942
WQ ROW_BUFFER_HIT: Channel 0 
  ROW_BUFFER_MISS:       1193
  FULL:     220089
OPTgen accesses: 4321
OPTgen hits: 2048
OPTgen hit rate: 47.3965


