WARNING: physical memory size is smaller than virtual memory size.

*** ChampSim Multicore Out-of-Order Simulator ***
Warmup Instructions: 25000000
Simulation Instructions: 25000000
Number of CPUs: 1
Page size: 4096

Initialize Hawkeye state
Off-chip DRAM Size: 4 GiB Channels: 1 Width: 64-bit Data Race: 800 MT/s
Heartbeat CPU 0 instructions: 10000002 cycles: 2581408 heartbeat IPC: 3.874 cumulative IPC: 3.874 (Simulation time: 00 hr 00 min 39 sec)
Heartbeat CPU 0 instructions: 20000001 cycles: 5433033 heartbeat IPC: 3.507 cumulative IPC: 3.681 (Simulation time: 00 hr 01 min 21 sec)
Warmup finished CPU 0 instructions: 25000003 cycles: 6683036 cumulative IPC: 3.741 (Simulation time: 00 hr 01 min 43 sec)
Warmup complete CPU 0 instructions: 25000003 cycles: 6683036 cumulative IPC: 3.741 (Simulation time: 00 hr 01 min 43 sec)
Heartbeat CPU 0 instructions: 30000002 cycles: 16626284 heartbeat IPC: 0.8934 cumulative IPC: 0.5029 (Simulation time: 00 hr 03 min 02 sec)
Heartbeat CPU 0 instructions: 40000003 cycles: 55451830 heartbeat IPC: 0.2576 cumulative IPC: 0.3076 (Simulation time: 00 hr 07 min 34 sec)
Heartbeat CPU 0 instructions: 50000002 cycles: 106118316 heartbeat IPC: 0.1974 cumulative IPC: 0.2514 (Simulation time: 00 hr 12 min 13 sec)
Simulation finished CPU 0 instructions: 25000003 cycles: 99435282 cumulative IPC: 0.2514 (Simulation time: 00 hr 12 min 13 sec)
Simulation complete CPU 0 instructions: 25000003 cycles: 99435282 cumulative IPC: 0.2514 (Simulation time: 00 hr 12 min 13 sec)

ChampSim completed all CPUs

=== Simulation ===
CPU 0 runs ./traces/soplex_205B.trace.xz
Region of Interest Statistics

CPU 0 cumulative IPC: 0.2514 instructions: 25000003 cycles: 99435282
CPU 0 Branch Prediction Accuracy: 94.47% MPKI: 11.02 Average ROB Occupancy at Mispredict: 70.39
Branch type MPKI
BRANCH_DIRECT_JUMP: 0.0298
BRANCH_INDIRECT: 0.0002
BRANCH_CONDITIONAL: 11
BRANCH_DIRECT_CALL: 0.00172
BRANCH_INDIRECT_CALL: 0.00096
BRANCH_RETURN: 0.00272

LLC TOTAL        ACCESS:    2171551 HIT:     942435 MISS:    1229116
LLC LOAD         ACCESS:     616115 HIT:     243188 MISS:     372927
LLC RFO          ACCESS:     219371 HIT:      64095 MISS:     155276
LLC PREFETCH     ACCESS:     768546 HIT:     265347 MISS:     503199
LLC WRITE        ACCESS:     558390 HIT:     368116 MISS:     190274
LLC TRANSLATION  ACCESS:       9129 HIT:       1689 MISS:       7440
LLC PREFETCH REQUESTED:          0 ISSUED:          0 USEFUL:          0 USELESS:          0
LLC AVERAGE MISS LATENCY: 834.2 cycles
cpu0_DTLB TOTAL        ACCESS:    6182668 HIT:    5782219 MISS:     400449
cpu0_DTLB LOAD         ACCESS:    6182668 HIT:    5782219 MISS:     400449
cpu0_DTLB RFO          ACCESS:          0 HIT:          0 MISS:          0
cpu0_DTLB PREFETCH     ACCESS:          0 HIT:          0 MISS:          0
cpu0_DTLB WRITE        ACCESS:          0 HIT:          0 MISS:          0
cpu0_DTLB TRANSLATION  ACCESS:          0 HIT:          0 MISS:          0
cpu0_DTLB PREFETCH REQUESTED:          0 ISSUED:          0 USEFUL:          0 USELESS:          0
cpu0_DTLB AVERAGE MISS LATENCY: 24.84 cycles
cpu0_ITLB TOTAL        ACCESS:       3181 HIT:       3149 MISS:         32
cpu0_ITLB LOAD         ACCESS:       3181 HIT:       3149 MISS:         32
cpu0_ITLB RFO          ACCESS:          0 HIT:          0 MISS:          0
cpu0_ITLB PREFETCH     ACCESS:          0 HIT:          0 MISS:          0
cpu0_ITLB WRITE        ACCESS:          0 HIT:          0 MISS:          0
cpu0_ITLB TRANSLATION  ACCESS:          0 HIT:          0 MISS:          0
cpu0_ITLB PREFETCH REQUESTED:          0 ISSUED:          0 USEFUL:          0 USELESS:          0
cpu0_ITLB AVERAGE MISS LATENCY: 242.2 cycles
cpu0_L1D TOTAL        ACCESS:   10966442 HIT:    6582786 MISS:    4383656
cpu0_L1D LOAD         ACCESS:    5107669 HIT:    3092458 MISS:    2015211
cpu0_L1D RFO          ACCESS:          0 HIT:          0 MISS:          0
cpu0_L1D PREFETCH     ACCESS:    3743873 HIT:    2038047 MISS:    1705826
cpu0_L1D WRITE        ACCESS:    2096072 HIT:    1447910 MISS:     648162
cpu0_L1D TRANSLATION  ACCESS:      18828 HIT:       4371 MISS:      14457
cpu0_L1D PREFETCH REQUESTED:   19830656 ISSUED:    3743865 USEFUL:     266645 USELESS:     429136
cpu0_L1D AVERAGE MISS LATENCY: 208.4 cycles
cpu0_L1I TOTAL        ACCESS:       3640 HIT:       2854 MISS:        786
cpu0_L1I LOAD         ACCESS:       3640 HIT:       2854 MISS:        786
cpu0_L1I RFO          ACCESS:          0 HIT:          0 MISS:          0
cpu0_L1I PREFETCH     ACCESS:          0 HIT:          0 MISS:          0
cpu0_L1I WRITE        ACCESS:          0 HIT:          0 MISS:          0
cpu0_L1I TRANSLATION  ACCESS:          0 HIT:          0 MISS:          0
cpu0_L1I PREFETCH REQUESTED:          0 ISSUED:          0 USEFUL:          0 USELESS:          0
cpu0_L1I AVERAGE MISS LATENCY: 363.8 cycles
cpu0_L2C TOTAL        ACCESS:    3475988 HIT:    1617936 MISS:    1858052
cpu0_L2C LOAD         ACCESS:    1041241 HIT:     380078 MISS:     661163
cpu0_L2C RFO          ACCESS:     261903 HIT:      42532 MISS:     219371
cpu0_L2C PREFETCH     ACCESS:    1398992 HIT:     430690 MISS:     968302
cpu0_L2C WRITE        ACCESS:     759554 HIT:     759467 MISS:         87
cpu0_L2C TRANSLATION  ACCESS:      14298 HIT:       5169 MISS:       9129
cpu0_L2C PREFETCH REQUESTED:     706000 ISSUED:     703170 USEFUL:     162942 USELESS:      50097
cpu0_L2C AVERAGE MISS LATENCY: 536 cycles
cpu0_STLB TOTAL        ACCESS:     276832 HIT:     258046 MISS:      18786
cpu0_STLB LOAD         ACCESS:     276832 HIT:     258046 MISS:      18786
cpu0_STLB RFO          ACCESS:          0 HIT:          0 MISS:          0
cpu0_STLB PREFETCH     ACCESS:          0 HIT:          0 MISS:          0
cpu0_STLB WRITE        ACCESS:          0 HIT:          0 MISS:          0
cpu0_STLB TRANSLATION  ACCESS:          0 HIT:          0 MISS:          0
cpu0_STLB PREFETCH REQUESTED:          0 ISSUED:          0 USEFUL:          0 USELESS:          0
cpu0_STLB AVERAGE MISS LATENCY: 546 cycles

DRAM Statistics

Channel 0 RQ ROW_BUFFER_HIT:     264277
  ROW_BUFFER_MISS:     684504
 AVG DBUS CONGESTED CYCLE: 3.941
WQ ROW_BUFFER_HIT: Channel 0 
  ROW_BUFFER_MISS:      25049
  FULL:     346849
OPTgen accesses: 7620
OPTgen hits: 4994
OPTgen hit rate: 65.5381


