WARNING: physical memory size is smaller than virtual memory size.

*** ChampSim Multicore Out-of-Order Simulator ***
Warmup Instructions: 25000000
Simulation Instructions: 25000000
Number of CPUs: 1
Page size: 4096

Off-chip DRAM Size: 4 GiB Channels: 1 Width: 64-bit Data Race: 800 MT/s
Heartbeat CPU 0 instructions: 10000001 cycles: 2500075 heartbeat IPC: 4 cumulative IPC: 4 (Simulation time: 00 hr 00 min 30 sec)
Heartbeat CPU 0 instructions: 20000001 cycles: 5000075 heartbeat IPC: 4 cumulative IPC: 4 (Simulation time: 00 hr 01 min 01 sec)
Warmup finished CPU 0 instructions: 25000001 cycles: 6250076 cumulative IPC: 4 (Simulation time: 00 hr 01 min 16 sec)
Warmup complete CPU 0 instructions: 25000001 cycles: 6250076 cumulative IPC: 4 (Simulation time: 00 hr 01 min 16 sec)
Heartbeat CPU 0 instructions: 30000001 cycles: 12896935 heartbeat IPC: 1.266 cumulative IPC: 0.7522 (Simulation time: 00 hr 01 min 55 sec)
Heartbeat CPU 0 instructions: 40000000 cycles: 26148456 heartbeat IPC: 0.7546 cumulative IPC: 0.7538 (Simulation time: 00 hr 03 min 14 sec)
Heartbeat CPU 0 instructions: 50000000 cycles: 39339914 heartbeat IPC: 0.7581 cumulative IPC: 0.7555 (Simulation time: 00 hr 04 min 32 sec)
Simulation finished CPU 0 instructions: 25000000 cycles: 33089840 cumulative IPC: 0.7555 (Simulation time: 00 hr 04 min 32 sec)
Simulation complete CPU 0 instructions: 25000000 cycles: 33089840 cumulative IPC: 0.7555 (Simulation time: 00 hr 04 min 32 sec)

ChampSim completed all CPUs

=== Simulation ===
CPU 0 runs ./traces/602.gcc_s-1850B.champsimtrace.xz
Region of Interest Statistics

CPU 0 cumulative IPC: 0.7555 instructions: 25000000 cycles: 33089840
CPU 0 Branch Prediction Accuracy: 87.84% MPKI: 31.17 Average ROB Occupancy at Mispredict: 12.83
Branch type MPKI
BRANCH_DIRECT_JUMP: 0.0119
BRANCH_INDIRECT: 0
BRANCH_CONDITIONAL: 31.2
BRANCH_DIRECT_CALL: 0
BRANCH_INDIRECT_CALL: 0
BRANCH_RETURN: 0

LLC TOTAL        ACCESS:     479370 HIT:       3460 MISS:     475910
LLC LOAD         ACCESS:     100388 HIT:        294 MISS:     100094
LLC RFO          ACCESS:          1 HIT:          0 MISS:          1
LLC PREFETCH     ACCESS:     377193 HIT:       2237 MISS:     374956
LLC WRITE        ACCESS:        623 HIT:        621 MISS:          2
LLC TRANSLATION  ACCESS:       1165 HIT:        308 MISS:        857
LLC PREFETCH REQUESTED:          0 ISSUED:          0 USEFUL:          0 USELESS:          0
LLC AVERAGE MISS LATENCY: 178.6 cycles
cpu0_DTLB TOTAL        ACCESS:    6070738 HIT:    6038852 MISS:      31886
cpu0_DTLB LOAD         ACCESS:    6070738 HIT:    6038852 MISS:      31886
cpu0_DTLB RFO          ACCESS:          0 HIT:          0 MISS:          0
cpu0_DTLB PREFETCH     ACCESS:          0 HIT:          0 MISS:          0
cpu0_DTLB WRITE        ACCESS:          0 HIT:          0 MISS:          0
cpu0_DTLB TRANSLATION  ACCESS:          0 HIT:          0 MISS:          0
cpu0_DTLB PREFETCH REQUESTED:          0 ISSUED:          0 USEFUL:          0 USELESS:          0
cpu0_DTLB AVERAGE MISS LATENCY: 61.08 cycles
cpu0_ITLB TOTAL        ACCESS:          0 HIT:          0 MISS:          0
cpu0_ITLB LOAD         ACCESS:          0 HIT:          0 MISS:          0
cpu0_ITLB RFO          ACCESS:          0 HIT:          0 MISS:          0
cpu0_ITLB PREFETCH     ACCESS:          0 HIT:          0 MISS:          0
cpu0_ITLB WRITE        ACCESS:          0 HIT:          0 MISS:          0
cpu0_ITLB TRANSLATION  ACCESS:          0 HIT:          0 MISS:          0
cpu0_ITLB PREFETCH REQUESTED:          0 ISSUED:          0 USEFUL:          0 USELESS:          0
cpu0_ITLB AVERAGE MISS LATENCY: -nan cycles
cpu0_L1D TOTAL        ACCESS:   13458375 HIT:   10784419 MISS:    2673956
cpu0_L1D LOAD         ACCESS:    5715829 HIT:    4754547 MISS:     961282
cpu0_L1D RFO          ACCESS:          0 HIT:          0 MISS:          0
cpu0_L1D PREFETCH     ACCESS:    5468215 HIT:    3756977 MISS:    1711238
cpu0_L1D WRITE        ACCESS:    2266509 HIT:    2266506 MISS:          3
cpu0_L1D TRANSLATION  ACCESS:       7822 HIT:       6389 MISS:       1433
cpu0_L1D PREFETCH REQUESTED:    6135267 ISSUED:    5468219 USEFUL:     354198 USELESS:      44870
cpu0_L1D AVERAGE MISS LATENCY: 21.61 cycles
cpu0_L1I TOTAL        ACCESS:          0 HIT:          0 MISS:          0
cpu0_L1I LOAD         ACCESS:          0 HIT:          0 MISS:          0
cpu0_L1I RFO          ACCESS:          0 HIT:          0 MISS:          0
cpu0_L1I PREFETCH     ACCESS:          0 HIT:          0 MISS:          0
cpu0_L1I WRITE        ACCESS:          0 HIT:          0 MISS:          0
cpu0_L1I TRANSLATION  ACCESS:          0 HIT:          0 MISS:          0
cpu0_L1I PREFETCH REQUESTED:          0 ISSUED:          0 USEFUL:          0 USELESS:          0
cpu0_L1I AVERAGE MISS LATENCY: -nan cycles
cpu0_L2C TOTAL        ACCESS:    1287700 HIT:     445910 MISS:     841790
cpu0_L2C LOAD         ACCESS:     324213 HIT:     190919 MISS:     133294
cpu0_L2C RFO          ACCESS:          1 HIT:          0 MISS:          1
cpu0_L2C PREFETCH     ACCESS:     961247 HIT:     253917 MISS:     707330
cpu0_L2C WRITE        ACCESS:        806 HIT:        806 MISS:          0
cpu0_L2C TRANSLATION  ACCESS:       1433 HIT:        268 MISS:       1165
cpu0_L2C PREFETCH REQUESTED:     562178 ISSUED:     562178 USEFUL:     144617 USELESS:      67522
cpu0_L2C AVERAGE MISS LATENCY: 106.2 cycles
cpu0_STLB TOTAL        ACCESS:       8099 HIT:        366 MISS:       7733
cpu0_STLB LOAD         ACCESS:       8099 HIT:        366 MISS:       7733
cpu0_STLB RFO          ACCESS:          0 HIT:          0 MISS:          0
cpu0_STLB PREFETCH     ACCESS:          0 HIT:          0 MISS:          0
cpu0_STLB WRITE        ACCESS:          0 HIT:          0 MISS:          0
cpu0_STLB TRANSLATION  ACCESS:          0 HIT:          0 MISS:          0
cpu0_STLB PREFETCH REQUESTED:          0 ISSUED:          0 USEFUL:          0 USELESS:          0
cpu0_STLB AVERAGE MISS LATENCY: 248.8 cycles

DRAM Statistics

Channel 0 RQ ROW_BUFFER_HIT:     420126
  ROW_BUFFER_MISS:      27673
 AVG DBUS CONGESTED CYCLE: 3.89
WQ ROW_BUFFER_HIT: Channel 0 
  ROW_BUFFER_MISS:        369
  FULL:        251
