WARNING: physical memory size is smaller than virtual memory size.

*** ChampSim Multicore Out-of-Order Simulator ***
Warmup Instructions: 25000000
Simulation Instructions: 25000000
Number of CPUs: 1
Page size: 4096

Off-chip DRAM Size: 4 GiB Channels: 1 Width: 64-bit Data Race: 800 MT/s
Heartbeat CPU 0 instructions: 10000002 cycles: 2500068 heartbeat IPC: 4 cumulative IPC: 4 (Simulation time: 00 hr 00 min 32 sec)
Heartbeat CPU 0 instructions: 20000002 cycles: 5000068 heartbeat IPC: 4 cumulative IPC: 4 (Simulation time: 00 hr 01 min 04 sec)
Warmup finished CPU 0 instructions: 25000002 cycles: 6250069 cumulative IPC: 4 (Simulation time: 00 hr 01 min 20 sec)
Warmup complete CPU 0 instructions: 25000002 cycles: 6250069 cumulative IPC: 4 (Simulation time: 00 hr 01 min 20 sec)
Heartbeat CPU 0 instructions: 30000000 cycles: 21855958 heartbeat IPC: 0.5933 cumulative IPC: 0.3204 (Simulation time: 00 hr 03 min 03 sec)
Heartbeat CPU 0 instructions: 40000001 cycles: 53178491 heartbeat IPC: 0.3193 cumulative IPC: 0.3196 (Simulation time: 00 hr 06 min 01 sec)
Heartbeat CPU 0 instructions: 50000000 cycles: 84348077 heartbeat IPC: 0.3208 cumulative IPC: 0.3201 (Simulation time: 00 hr 08 min 36 sec)
Simulation finished CPU 0 instructions: 25000000 cycles: 78098014 cumulative IPC: 0.3201 (Simulation time: 00 hr 08 min 36 sec)
Simulation complete CPU 0 instructions: 25000000 cycles: 78098014 cumulative IPC: 0.3201 (Simulation time: 00 hr 08 min 36 sec)

ChampSim completed all CPUs

=== Simulation ===
CPU 0 runs ./traces/602.gcc_s-2226B.champsimtrace.xz
Region of Interest Statistics

CPU 0 cumulative IPC: 0.3201 instructions: 25000000 cycles: 78098014
CPU 0 Branch Prediction Accuracy: 98.44% MPKI: 5.548 Average ROB Occupancy at Mispredict: 65.88
Branch type MPKI
BRANCH_DIRECT_JUMP: 0.073
BRANCH_INDIRECT: 0
BRANCH_CONDITIONAL: 5.47
BRANCH_DIRECT_CALL: 8e-05
BRANCH_INDIRECT_CALL: 0
BRANCH_RETURN: 0

LLC TOTAL        ACCESS:    4907322 HIT:      37419 MISS:    4869903
LLC LOAD         ACCESS:    1622539 HIT:      20855 MISS:    1601684
LLC RFO          ACCESS:         10 HIT:          0 MISS:         10
LLC PREFETCH     ACCESS:    3275286 HIT:      12650 MISS:    3262636
LLC WRITE        ACCESS:       2762 HIT:       2749 MISS:         13
LLC TRANSLATION  ACCESS:       6725 HIT:       1165 MISS:       5560
LLC PREFETCH REQUESTED:          0 ISSUED:          0 USEFUL:          0 USELESS:          0
LLC AVERAGE MISS LATENCY: 206 cycles
cpu0_DTLB TOTAL        ACCESS:    3487320 HIT:    3142373 MISS:     344947
cpu0_DTLB LOAD         ACCESS:    3487320 HIT:    3142373 MISS:     344947
cpu0_DTLB RFO          ACCESS:          0 HIT:          0 MISS:          0
cpu0_DTLB PREFETCH     ACCESS:          0 HIT:          0 MISS:          0
cpu0_DTLB WRITE        ACCESS:          0 HIT:          0 MISS:          0
cpu0_DTLB TRANSLATION  ACCESS:          0 HIT:          0 MISS:          0
cpu0_DTLB PREFETCH REQUESTED:          0 ISSUED:          0 USEFUL:          0 USELESS:          0
cpu0_DTLB AVERAGE MISS LATENCY: 19.03 cycles
cpu0_ITLB TOTAL        ACCESS:          0 HIT:          0 MISS:          0
cpu0_ITLB LOAD         ACCESS:          0 HIT:          0 MISS:          0
cpu0_ITLB RFO          ACCESS:          0 HIT:          0 MISS:          0
cpu0_ITLB PREFETCH     ACCESS:          0 HIT:          0 MISS:          0
cpu0_ITLB WRITE        ACCESS:          0 HIT:          0 MISS:          0
cpu0_ITLB TRANSLATION  ACCESS:          0 HIT:          0 MISS:          0
cpu0_ITLB PREFETCH REQUESTED:          0 ISSUED:          0 USEFUL:          0 USELESS:          0
cpu0_ITLB AVERAGE MISS LATENCY: -nan cycles
cpu0_L1D TOTAL        ACCESS:    6322779 HIT:    2032027 MISS:    4290752
cpu0_L1D LOAD         ACCESS:    4228681 HIT:     814553 MISS:    3414128
cpu0_L1D RFO          ACCESS:          0 HIT:          0 MISS:          0
cpu0_L1D PREFETCH     ACCESS:    1719035 HIT:     850273 MISS:     868762
cpu0_L1D WRITE        ACCESS:     341680 HIT:     341661 MISS:         19
cpu0_L1D TRANSLATION  ACCESS:      33383 HIT:      25540 MISS:       7843
cpu0_L1D PREFETCH REQUESTED:   53766179 ISSUED:    1719028 USEFUL:      82436 USELESS:      59495
cpu0_L1D AVERAGE MISS LATENCY: 233.7 cycles
cpu0_L1I TOTAL        ACCESS:          0 HIT:          0 MISS:          0
cpu0_L1I LOAD         ACCESS:          0 HIT:          0 MISS:          0
cpu0_L1I RFO          ACCESS:          0 HIT:          0 MISS:          0
cpu0_L1I PREFETCH     ACCESS:          0 HIT:          0 MISS:          0
cpu0_L1I WRITE        ACCESS:          0 HIT:          0 MISS:          0
cpu0_L1I TRANSLATION  ACCESS:          0 HIT:          0 MISS:          0
cpu0_L1I PREFETCH REQUESTED:          0 ISSUED:          0 USEFUL:          0 USELESS:          0
cpu0_L1I AVERAGE MISS LATENCY: -nan cycles
cpu0_L2C TOTAL        ACCESS:    5846568 HIT:     119843 MISS:    5726725
cpu0_L2C LOAD         ACCESS:    1725721 HIT:      59344 MISS:    1666377
cpu0_L2C RFO          ACCESS:         10 HIT:          0 MISS:         10
cpu0_L2C PREFETCH     ACCESS:    4109816 HIT:      56203 MISS:    4053613
cpu0_L2C WRITE        ACCESS:       3200 HIT:       3200 MISS:          0
cpu0_L2C TRANSLATION  ACCESS:       7821 HIT:       1096 MISS:       6725
cpu0_L2C PREFETCH REQUESTED:    3968035 ISSUED:    3967884 USEFUL:      48386 USELESS:       6544
cpu0_L2C AVERAGE MISS LATENCY: 175.9 cycles
cpu0_STLB TOTAL        ACCESS:      33963 HIT:       1260 MISS:      32703
cpu0_STLB LOAD         ACCESS:      33963 HIT:       1260 MISS:      32703
cpu0_STLB RFO          ACCESS:          0 HIT:          0 MISS:          0
cpu0_STLB PREFETCH     ACCESS:          0 HIT:          0 MISS:          0
cpu0_STLB WRITE        ACCESS:          0 HIT:          0 MISS:          0
cpu0_STLB TRANSLATION  ACCESS:          0 HIT:          0 MISS:          0
cpu0_STLB PREFETCH REQUESTED:          0 ISSUED:          0 USEFUL:          0 USELESS:          0
cpu0_STLB AVERAGE MISS LATENCY: 325.9 cycles

DRAM Statistics

Channel 0 RQ ROW_BUFFER_HIT:    1629044
  ROW_BUFFER_MISS:     139271
 AVG DBUS CONGESTED CYCLE: 3.986
WQ ROW_BUFFER_HIT: Channel 0 
  ROW_BUFFER_MISS:        709
  FULL:       1998
