WARNING: physical memory size is smaller than virtual memory size.

*** ChampSim Multicore Out-of-Order Simulator ***
Warmup Instructions: 25000000
Simulation Instructions: 25000000
Number of CPUs: 1
Page size: 4096

Off-chip DRAM Size: 4 GiB Channels: 1 Width: 64-bit Data Race: 800 MT/s
Heartbeat CPU 0 instructions: 10000001 cycles: 2500087 heartbeat IPC: 4 cumulative IPC: 4 (Simulation time: 00 hr 00 min 26 sec)
Heartbeat CPU 0 instructions: 20000003 cycles: 5000109 heartbeat IPC: 4 cumulative IPC: 4 (Simulation time: 00 hr 00 min 52 sec)
Warmup finished CPU 0 instructions: 25000003 cycles: 6250110 cumulative IPC: 4 (Simulation time: 00 hr 01 min 06 sec)
Warmup complete CPU 0 instructions: 25000003 cycles: 6250110 cumulative IPC: 4 (Simulation time: 00 hr 01 min 06 sec)
Heartbeat CPU 0 instructions: 30000000 cycles: 11009133 heartbeat IPC: 1.664 cumulative IPC: 1.051 (Simulation time: 00 hr 01 min 34 sec)
Heartbeat CPU 0 instructions: 40000001 cycles: 20759343 heartbeat IPC: 1.026 cumulative IPC: 1.034 (Simulation time: 00 hr 02 min 35 sec)
Heartbeat CPU 0 instructions: 50000002 cycles: 33158867 heartbeat IPC: 0.8065 cumulative IPC: 0.9291 (Simulation time: 00 hr 03 min 44 sec)
Simulation finished CPU 0 instructions: 25000003 cycles: 26908759 cumulative IPC: 0.9291 (Simulation time: 00 hr 03 min 44 sec)
Simulation complete CPU 0 instructions: 25000003 cycles: 26908759 cumulative IPC: 0.9291 (Simulation time: 00 hr 03 min 44 sec)

ChampSim completed all CPUs

=== Simulation ===
CPU 0 runs ./traces/602.gcc_s-734B.champsimtrace.xz
Region of Interest Statistics

CPU 0 cumulative IPC: 0.9291 instructions: 25000003 cycles: 26908759
CPU 0 Branch Prediction Accuracy: 89.42% MPKI: 25.09 Average ROB Occupancy at Mispredict: 17.5
Branch type MPKI
BRANCH_DIRECT_JUMP: 0.0794
BRANCH_INDIRECT: 0
BRANCH_CONDITIONAL: 25
BRANCH_DIRECT_CALL: 0.0548
BRANCH_INDIRECT_CALL: 0
BRANCH_RETURN: 0

LLC TOTAL        ACCESS:     211566 HIT:       1417 MISS:     210149
LLC LOAD         ACCESS:       6021 HIT:        107 MISS:       5914
LLC RFO          ACCESS:          1 HIT:          0 MISS:          1
LLC PREFETCH     ACCESS:     201664 HIT:        212 MISS:     201452
LLC WRITE        ACCESS:       1294 HIT:        785 MISS:        509
LLC TRANSLATION  ACCESS:       2586 HIT:        313 MISS:       2273
LLC PREFETCH REQUESTED:          0 ISSUED:          0 USEFUL:          0 USELESS:          0
LLC AVERAGE MISS LATENCY: 145.1 cycles
cpu0_DTLB TOTAL        ACCESS:    6245146 HIT:    6232564 MISS:      12582
cpu0_DTLB LOAD         ACCESS:    6245146 HIT:    6232564 MISS:      12582
cpu0_DTLB RFO          ACCESS:          0 HIT:          0 MISS:          0
cpu0_DTLB PREFETCH     ACCESS:          0 HIT:          0 MISS:          0
cpu0_DTLB WRITE        ACCESS:          0 HIT:          0 MISS:          0
cpu0_DTLB TRANSLATION  ACCESS:          0 HIT:          0 MISS:          0
cpu0_DTLB PREFETCH REQUESTED:          0 ISSUED:          0 USEFUL:          0 USELESS:          0
cpu0_DTLB AVERAGE MISS LATENCY: 74.23 cycles
cpu0_ITLB TOTAL        ACCESS:          4 HIT:          4 MISS:          0
cpu0_ITLB LOAD         ACCESS:          4 HIT:          4 MISS:          0
cpu0_ITLB RFO          ACCESS:          0 HIT:          0 MISS:          0
cpu0_ITLB PREFETCH     ACCESS:          0 HIT:          0 MISS:          0
cpu0_ITLB WRITE        ACCESS:          0 HIT:          0 MISS:          0
cpu0_ITLB TRANSLATION  ACCESS:          0 HIT:          0 MISS:          0
cpu0_ITLB PREFETCH REQUESTED:          0 ISSUED:          0 USEFUL:          0 USELESS:          0
cpu0_ITLB AVERAGE MISS LATENCY: -nan cycles
cpu0_L1D TOTAL        ACCESS:   13798434 HIT:   11694871 MISS:    2103563
cpu0_L1D LOAD         ACCESS:    5605929 HIT:    5324580 MISS:     281349
cpu0_L1D RFO          ACCESS:          0 HIT:          0 MISS:          0
cpu0_L1D PREFETCH     ACCESS:    5600419 HIT:    3781033 MISS:    1819386
cpu0_L1D WRITE        ACCESS:    2586479 HIT:    2586444 MISS:         35
cpu0_L1D TRANSLATION  ACCESS:       5607 HIT:       2814 MISS:       2793
cpu0_L1D PREFETCH REQUESTED:    5608884 ISSUED:    5600420 USEFUL:     388252 USELESS:      12560
cpu0_L1D AVERAGE MISS LATENCY: 10.5 cycles
cpu0_L1I TOTAL        ACCESS:          4 HIT:          4 MISS:          0
cpu0_L1I LOAD         ACCESS:          4 HIT:          4 MISS:          0
cpu0_L1I RFO          ACCESS:          0 HIT:          0 MISS:          0
cpu0_L1I PREFETCH     ACCESS:          0 HIT:          0 MISS:          0
cpu0_L1I WRITE        ACCESS:          0 HIT:          0 MISS:          0
cpu0_L1I TRANSLATION  ACCESS:          0 HIT:          0 MISS:          0
cpu0_L1I PREFETCH REQUESTED:          0 ISSUED:          0 USEFUL:          0 USELESS:          0
cpu0_L1I AVERAGE MISS LATENCY: -nan cycles
cpu0_L2C TOTAL        ACCESS:     423355 HIT:     212724 MISS:     210631
cpu0_L2C LOAD         ACCESS:      15618 HIT:       9559 MISS:       6059
cpu0_L2C RFO          ACCESS:         10 HIT:          9 MISS:          1
cpu0_L2C PREFETCH     ACCESS:     402052 HIT:     200071 MISS:     201981
cpu0_L2C WRITE        ACCESS:       2883 HIT:       2879 MISS:          4
cpu0_L2C TRANSLATION  ACCESS:       2792 HIT:        206 MISS:       2586
cpu0_L2C PREFETCH REQUESTED:       1232 ISSUED:       1232 USEFUL:        331 USELESS:        419
cpu0_L2C AVERAGE MISS LATENCY: 165.6 cycles
cpu0_STLB TOTAL        ACCESS:       7141 HIT:       1951 MISS:       5190
cpu0_STLB LOAD         ACCESS:       7141 HIT:       1951 MISS:       5190
cpu0_STLB RFO          ACCESS:          0 HIT:          0 MISS:          0
cpu0_STLB PREFETCH     ACCESS:          0 HIT:          0 MISS:          0
cpu0_STLB WRITE        ACCESS:          0 HIT:          0 MISS:          0
cpu0_STLB TRANSLATION  ACCESS:          0 HIT:          0 MISS:          0
cpu0_STLB PREFETCH REQUESTED:          0 ISSUED:          0 USEFUL:          0 USELESS:          0
cpu0_STLB AVERAGE MISS LATENCY: 173.6 cycles

DRAM Statistics

Channel 0 RQ ROW_BUFFER_HIT:     137212
  ROW_BUFFER_MISS:      72381
 AVG DBUS CONGESTED CYCLE: 3.593
WQ ROW_BUFFER_HIT: Channel 0 
  ROW_BUFFER_MISS:        731
  FULL:        630
