WARNING: physical memory size is smaller than virtual memory size.

*** ChampSim Multicore Out-of-Order Simulator ***
Warmup Instructions: 25000000
Simulation Instructions: 25000000
Number of CPUs: 1
Page size: 4096

Off-chip DRAM Size: 4 GiB Channels: 1 Width: 64-bit Data Race: 800 MT/s
Heartbeat CPU 0 instructions: 10000002 cycles: 2500136 heartbeat IPC: 4 cumulative IPC: 4 (Simulation time: 00 hr 00 min 32 sec)
Heartbeat CPU 0 instructions: 20000003 cycles: 5000151 heartbeat IPC: 4 cumulative IPC: 4 (Simulation time: 00 hr 01 min 05 sec)
Warmup finished CPU 0 instructions: 25000003 cycles: 6250152 cumulative IPC: 4 (Simulation time: 00 hr 01 min 22 sec)
Warmup complete CPU 0 instructions: 25000003 cycles: 6250152 cumulative IPC: 4 (Simulation time: 00 hr 01 min 22 sec)
Heartbeat CPU 0 instructions: 30000000 cycles: 14053302 heartbeat IPC: 1.105 cumulative IPC: 0.6408 (Simulation time: 00 hr 02 min 29 sec)
Heartbeat CPU 0 instructions: 40000000 cycles: 29680355 heartbeat IPC: 0.6399 cumulative IPC: 0.6402 (Simulation time: 00 hr 04 min 37 sec)
Heartbeat CPU 0 instructions: 50000003 cycles: 45276885 heartbeat IPC: 0.6412 cumulative IPC: 0.6406 (Simulation time: 00 hr 06 min 49 sec)
Simulation finished CPU 0 instructions: 25000000 cycles: 39026734 cumulative IPC: 0.6406 (Simulation time: 00 hr 06 min 49 sec)
Simulation complete CPU 0 instructions: 25000000 cycles: 39026734 cumulative IPC: 0.6406 (Simulation time: 00 hr 06 min 49 sec)

ChampSim completed all CPUs

=== Simulation ===
CPU 0 runs ./traces/603.bwaves_s-2609B.champsimtrace.xz
Region of Interest Statistics

CPU 0 cumulative IPC: 0.6406 instructions: 25000000 cycles: 39026734
CPU 0 Branch Prediction Accuracy: 81.23% MPKI: 4.685 Average ROB Occupancy at Mispredict: 300.5
Branch type MPKI
BRANCH_DIRECT_JUMP: 0
BRANCH_INDIRECT: 0
BRANCH_CONDITIONAL: 4.68
BRANCH_DIRECT_CALL: 0
BRANCH_INDIRECT_CALL: 0
BRANCH_RETURN: 0

LLC TOTAL        ACCESS:     503194 HIT:      24432 MISS:     478762
LLC LOAD         ACCESS:     236768 HIT:      10476 MISS:     226292
LLC RFO          ACCESS:      12181 HIT:          0 MISS:      12181
LLC PREFETCH     ACCESS:     241863 HIT:       1631 MISS:     240232
LLC WRITE        ACCESS:      12252 HIT:      12227 MISS:         25
LLC TRANSLATION  ACCESS:        130 HIT:         98 MISS:         32
LLC PREFETCH REQUESTED:          0 ISSUED:          0 USEFUL:          0 USELESS:          0
LLC AVERAGE MISS LATENCY: 1028 cycles
cpu0_DTLB TOTAL        ACCESS:    6670224 HIT:    6646463 MISS:      23761
cpu0_DTLB LOAD         ACCESS:    6670224 HIT:    6646463 MISS:      23761
cpu0_DTLB RFO          ACCESS:          0 HIT:          0 MISS:          0
cpu0_DTLB PREFETCH     ACCESS:          0 HIT:          0 MISS:          0
cpu0_DTLB WRITE        ACCESS:          0 HIT:          0 MISS:          0
cpu0_DTLB TRANSLATION  ACCESS:          0 HIT:          0 MISS:          0
cpu0_DTLB PREFETCH REQUESTED:          0 ISSUED:          0 USEFUL:          0 USELESS:          0
cpu0_DTLB AVERAGE MISS LATENCY: 56.65 cycles
cpu0_ITLB TOTAL        ACCESS:          0 HIT:          0 MISS:          0
cpu0_ITLB LOAD         ACCESS:          0 HIT:          0 MISS:          0
cpu0_ITLB RFO          ACCESS:          0 HIT:          0 MISS:          0
cpu0_ITLB PREFETCH     ACCESS:          0 HIT:          0 MISS:          0
cpu0_ITLB WRITE        ACCESS:          0 HIT:          0 MISS:          0
cpu0_ITLB TRANSLATION  ACCESS:          0 HIT:          0 MISS:          0
cpu0_ITLB PREFETCH REQUESTED:          0 ISSUED:          0 USEFUL:          0 USELESS:          0
cpu0_ITLB AVERAGE MISS LATENCY: -nan cycles
cpu0_L1D TOTAL        ACCESS:    9592623 HIT:    8363427 MISS:    1229196
cpu0_L1D LOAD         ACCESS:    6386979 HIT:    5630266 MISS:     756713
cpu0_L1D RFO          ACCESS:          0 HIT:          0 MISS:          0
cpu0_L1D PREFETCH     ACCESS:    1789849 HIT:    1387903 MISS:     401946
cpu0_L1D WRITE        ACCESS:    1408364 HIT:    1345001 MISS:      63363
cpu0_L1D TRANSLATION  ACCESS:       7431 HIT:        257 MISS:       7174
cpu0_L1D PREFETCH REQUESTED:    9471028 ISSUED:    1789856 USEFUL:     192098 USELESS:       6016
cpu0_L1D AVERAGE MISS LATENCY: 225.5 cycles
cpu0_L1I TOTAL        ACCESS:          0 HIT:          0 MISS:          0
cpu0_L1I LOAD         ACCESS:          0 HIT:          0 MISS:          0
cpu0_L1I RFO          ACCESS:          0 HIT:          0 MISS:          0
cpu0_L1I PREFETCH     ACCESS:          0 HIT:          0 MISS:          0
cpu0_L1I WRITE        ACCESS:          0 HIT:          0 MISS:          0
cpu0_L1I TRANSLATION  ACCESS:          0 HIT:          0 MISS:          0
cpu0_L1I PREFETCH REQUESTED:          0 ISSUED:          0 USEFUL:          0 USELESS:          0
cpu0_L1I AVERAGE MISS LATENCY: -nan cycles
cpu0_L2C TOTAL        ACCESS:     692308 HIT:     110982 MISS:     581326
cpu0_L2C LOAD         ACCESS:     311392 HIT:      46561 MISS:     264831
cpu0_L2C RFO          ACCESS:      14878 HIT:       2696 MISS:      12182
cpu0_L2C PREFETCH     ACCESS:     342547 HIT:      38445 MISS:     304102
cpu0_L2C WRITE        ACCESS:      16317 HIT:      16236 MISS:         81
cpu0_L2C TRANSLATION  ACCESS:       7174 HIT:       7044 MISS:        130
cpu0_L2C PREFETCH REQUESTED:     144423 ISSUED:     144423 USEFUL:      61147 USELESS:      11151
cpu0_L2C AVERAGE MISS LATENCY: 815.8 cycles
cpu0_STLB TOTAL        ACCESS:      13786 HIT:       6369 MISS:       7417
cpu0_STLB LOAD         ACCESS:      13786 HIT:       6369 MISS:       7417
cpu0_STLB RFO          ACCESS:          0 HIT:          0 MISS:          0
cpu0_STLB PREFETCH     ACCESS:          0 HIT:          0 MISS:          0
cpu0_STLB WRITE        ACCESS:          0 HIT:          0 MISS:          0
cpu0_STLB TRANSLATION  ACCESS:          0 HIT:          0 MISS:          0
cpu0_STLB PREFETCH REQUESTED:          0 ISSUED:          0 USEFUL:          0 USELESS:          0
cpu0_STLB AVERAGE MISS LATENCY: 219.1 cycles

DRAM Statistics

Channel 0 RQ ROW_BUFFER_HIT:     339589
  ROW_BUFFER_MISS:     135806
 AVG DBUS CONGESTED CYCLE: 3.758
WQ ROW_BUFFER_HIT: Channel 0 
  ROW_BUFFER_MISS:       1630
  FULL:      10535
