WARNING: physical memory size is smaller than virtual memory size.

*** ChampSim Multicore Out-of-Order Simulator ***
Warmup Instructions: 25000000
Simulation Instructions: 25000000
Number of CPUs: 1
Page size: 4096

Off-chip DRAM Size: 4 GiB Channels: 1 Width: 64-bit Data Race: 800 MT/s
Heartbeat CPU 0 instructions: 10000003 cycles: 2500157 heartbeat IPC: 4 cumulative IPC: 4 (Simulation time: 00 hr 00 min 29 sec)
Heartbeat CPU 0 instructions: 20000003 cycles: 5000157 heartbeat IPC: 4 cumulative IPC: 4 (Simulation time: 00 hr 00 min 57 sec)
Warmup finished CPU 0 instructions: 25000003 cycles: 6250158 cumulative IPC: 4 (Simulation time: 00 hr 01 min 12 sec)
Warmup complete CPU 0 instructions: 25000003 cycles: 6250158 cumulative IPC: 4 (Simulation time: 00 hr 01 min 12 sec)
Heartbeat CPU 0 instructions: 30000003 cycles: 14095604 heartbeat IPC: 1.099 cumulative IPC: 0.6373 (Simulation time: 00 hr 02 min 11 sec)
Heartbeat CPU 0 instructions: 40000000 cycles: 29756625 heartbeat IPC: 0.6385 cumulative IPC: 0.6381 (Simulation time: 00 hr 04 min 06 sec)
Heartbeat CPU 0 instructions: 50000000 cycles: 45387363 heartbeat IPC: 0.6398 cumulative IPC: 0.6388 (Simulation time: 00 hr 06 min 03 sec)
Simulation finished CPU 0 instructions: 25000001 cycles: 39137207 cumulative IPC: 0.6388 (Simulation time: 00 hr 06 min 03 sec)
Simulation complete CPU 0 instructions: 25000001 cycles: 39137207 cumulative IPC: 0.6388 (Simulation time: 00 hr 06 min 03 sec)

ChampSim completed all CPUs

=== Simulation ===
CPU 0 runs ./traces/603.bwaves_s-1740B.champsimtrace.xz
Region of Interest Statistics

CPU 0 cumulative IPC: 0.6388 instructions: 25000001 cycles: 39137207
CPU 0 Branch Prediction Accuracy: 81.23% MPKI: 4.685 Average ROB Occupancy at Mispredict: 300.7
Branch type MPKI
BRANCH_DIRECT_JUMP: 0
BRANCH_INDIRECT: 0
BRANCH_CONDITIONAL: 4.68
BRANCH_DIRECT_CALL: 0
BRANCH_INDIRECT_CALL: 0
BRANCH_RETURN: 0

LLC TOTAL        ACCESS:     503068 HIT:      24456 MISS:     478612
LLC LOAD         ACCESS:     236442 HIT:      10420 MISS:     226022
LLC RFO          ACCESS:      12181 HIT:          0 MISS:      12181
LLC PREFETCH     ACCESS:     241914 HIT:       1567 MISS:     240347
LLC WRITE        ACCESS:      12265 HIT:      12230 MISS:         35
LLC TRANSLATION  ACCESS:        266 HIT:        239 MISS:         27
LLC PREFETCH REQUESTED:          0 ISSUED:          0 USEFUL:          0 USELESS:          0
LLC AVERAGE MISS LATENCY: 1032 cycles
cpu0_DTLB TOTAL        ACCESS:    6667966 HIT:    6624167 MISS:      43799
cpu0_DTLB LOAD         ACCESS:    6667966 HIT:    6624167 MISS:      43799
cpu0_DTLB RFO          ACCESS:          0 HIT:          0 MISS:          0
cpu0_DTLB PREFETCH     ACCESS:          0 HIT:          0 MISS:          0
cpu0_DTLB WRITE        ACCESS:          0 HIT:          0 MISS:          0
cpu0_DTLB TRANSLATION  ACCESS:          0 HIT:          0 MISS:          0
cpu0_DTLB PREFETCH REQUESTED:          0 ISSUED:          0 USEFUL:          0 USELESS:          0
cpu0_DTLB AVERAGE MISS LATENCY: 33.69 cycles
cpu0_ITLB TOTAL        ACCESS:          0 HIT:          0 MISS:          0
cpu0_ITLB LOAD         ACCESS:          0 HIT:          0 MISS:          0
cpu0_ITLB RFO          ACCESS:          0 HIT:          0 MISS:          0
cpu0_ITLB PREFETCH     ACCESS:          0 HIT:          0 MISS:          0
cpu0_ITLB WRITE        ACCESS:          0 HIT:          0 MISS:          0
cpu0_ITLB TRANSLATION  ACCESS:          0 HIT:          0 MISS:          0
cpu0_ITLB PREFETCH REQUESTED:          0 ISSUED:          0 USEFUL:          0 USELESS:          0
cpu0_ITLB AVERAGE MISS LATENCY: -nan cycles
cpu0_L1D TOTAL        ACCESS:    9585671 HIT:    8360730 MISS:    1224941
cpu0_L1D LOAD         ACCESS:    6382987 HIT:    5627682 MISS:     755305
cpu0_L1D RFO          ACCESS:          0 HIT:          0 MISS:          0
cpu0_L1D PREFETCH     ACCESS:    1786891 HIT:    1387589 MISS:     399302
cpu0_L1D WRITE        ACCESS:    1408357 HIT:    1345300 MISS:      63057
cpu0_L1D TRANSLATION  ACCESS:       7436 HIT:        159 MISS:       7277
cpu0_L1D PREFETCH REQUESTED:    9459170 ISSUED:    1786891 USEFUL:     191735 USELESS:       6081
cpu0_L1D AVERAGE MISS LATENCY: 227.3 cycles
cpu0_L1I TOTAL        ACCESS:          0 HIT:          0 MISS:          0
cpu0_L1I LOAD         ACCESS:          0 HIT:          0 MISS:          0
cpu0_L1I RFO          ACCESS:          0 HIT:          0 MISS:          0
cpu0_L1I PREFETCH     ACCESS:          0 HIT:          0 MISS:          0
cpu0_L1I WRITE        ACCESS:          0 HIT:          0 MISS:          0
cpu0_L1I TRANSLATION  ACCESS:          0 HIT:          0 MISS:          0
cpu0_L1I PREFETCH REQUESTED:          0 ISSUED:          0 USEFUL:          0 USELESS:          0
cpu0_L1I AVERAGE MISS LATENCY: -nan cycles
cpu0_L2C TOTAL        ACCESS:     693705 HIT:     112046 MISS:     581659
cpu0_L2C LOAD         ACCESS:     311705 HIT:      47128 MISS:     264577
cpu0_L2C RFO          ACCESS:      14845 HIT:       2664 MISS:      12181
cpu0_L2C PREFETCH     ACCESS:     343647 HIT:      39106 MISS:     304541
cpu0_L2C WRITE        ACCESS:      16231 HIT:      16137 MISS:         94
cpu0_L2C TRANSLATION  ACCESS:       7277 HIT:       7011 MISS:        266
cpu0_L2C PREFETCH REQUESTED:     145856 ISSUED:     145856 USEFUL:      62117 USELESS:      11523
cpu0_L2C AVERAGE MISS LATENCY: 818.6 cycles
cpu0_STLB TOTAL        ACCESS:      30793 HIT:      23369 MISS:       7424
cpu0_STLB LOAD         ACCESS:      30793 HIT:      23369 MISS:       7424
cpu0_STLB RFO          ACCESS:          0 HIT:          0 MISS:          0
cpu0_STLB PREFETCH     ACCESS:          0 HIT:          0 MISS:          0
cpu0_STLB WRITE        ACCESS:          0 HIT:          0 MISS:          0
cpu0_STLB TRANSLATION  ACCESS:          0 HIT:          0 MISS:          0
cpu0_STLB PREFETCH REQUESTED:          0 ISSUED:          0 USEFUL:          0 USELESS:          0
cpu0_STLB AVERAGE MISS LATENCY: 219 cycles

DRAM Statistics

Channel 0 RQ ROW_BUFFER_HIT:     338891
  ROW_BUFFER_MISS:     136489
 AVG DBUS CONGESTED CYCLE: 3.76
WQ ROW_BUFFER_HIT: Channel 0 
  ROW_BUFFER_MISS:       1542
  FULL:      10679
