WARNING: physical memory size is smaller than virtual memory size.

*** ChampSim Multicore Out-of-Order Simulator ***
Warmup Instructions: 25000000
Simulation Instructions: 25000000
Number of CPUs: 1
Page size: 4096

Off-chip DRAM Size: 4 GiB Channels: 1 Width: 64-bit Data Race: 800 MT/s
Heartbeat CPU 0 instructions: 10000000 cycles: 2569728 heartbeat IPC: 3.891 cumulative IPC: 3.891 (Simulation time: 00 hr 00 min 29 sec)
Heartbeat CPU 0 instructions: 20000000 cycles: 5139100 heartbeat IPC: 3.892 cumulative IPC: 3.892 (Simulation time: 00 hr 00 min 59 sec)
Warmup finished CPU 0 instructions: 25000002 cycles: 6421471 cumulative IPC: 3.893 (Simulation time: 00 hr 01 min 14 sec)
Warmup complete CPU 0 instructions: 25000002 cycles: 6421471 cumulative IPC: 3.893 (Simulation time: 00 hr 01 min 14 sec)
Heartbeat CPU 0 instructions: 30000003 cycles: 19404336 heartbeat IPC: 0.701 cumulative IPC: 0.3851 (Simulation time: 00 hr 02 min 20 sec)
Heartbeat CPU 0 instructions: 40000001 cycles: 45780457 heartbeat IPC: 0.3791 cumulative IPC: 0.3811 (Simulation time: 00 hr 04 min 30 sec)
Heartbeat CPU 0 instructions: 50000003 cycles: 72573504 heartbeat IPC: 0.3732 cumulative IPC: 0.3779 (Simulation time: 00 hr 06 min 39 sec)
Simulation finished CPU 0 instructions: 25000001 cycles: 66152034 cumulative IPC: 0.3779 (Simulation time: 00 hr 06 min 39 sec)
Simulation complete CPU 0 instructions: 25000001 cycles: 66152034 cumulative IPC: 0.3779 (Simulation time: 00 hr 06 min 39 sec)

ChampSim completed all CPUs

=== Simulation ===
CPU 0 runs ./traces/605.mcf_s-1152B.champsimtrace.xz
Region of Interest Statistics

CPU 0 cumulative IPC: 0.3779 instructions: 25000001 cycles: 66152034
CPU 0 Branch Prediction Accuracy: 85.61% MPKI: 35.89 Average ROB Occupancy at Mispredict: 11.22
Branch type MPKI
BRANCH_DIRECT_JUMP: 0.211
BRANCH_INDIRECT: 0
BRANCH_CONDITIONAL: 35.7
BRANCH_DIRECT_CALL: 0
BRANCH_INDIRECT_CALL: 0.00464
BRANCH_RETURN: 0

LLC TOTAL        ACCESS:    1863499 HIT:    1291578 MISS:     571921
LLC LOAD         ACCESS:     768353 HIT:     579132 MISS:     189221
LLC RFO          ACCESS:      75382 HIT:      75087 MISS:        295
LLC PREFETCH     ACCESS:     910482 HIT:     529657 MISS:     380825
LLC WRITE        ACCESS:     106349 HIT:     106262 MISS:         87
LLC TRANSLATION  ACCESS:       2933 HIT:       1440 MISS:       1493
LLC PREFETCH REQUESTED:          0 ISSUED:          0 USEFUL:          0 USELESS:          0
LLC AVERAGE MISS LATENCY: 285.4 cycles
cpu0_DTLB TOTAL        ACCESS:    7657653 HIT:    6904350 MISS:     753303
cpu0_DTLB LOAD         ACCESS:    7657653 HIT:    6904350 MISS:     753303
cpu0_DTLB RFO          ACCESS:          0 HIT:          0 MISS:          0
cpu0_DTLB PREFETCH     ACCESS:          0 HIT:          0 MISS:          0
cpu0_DTLB WRITE        ACCESS:          0 HIT:          0 MISS:          0
cpu0_DTLB TRANSLATION  ACCESS:          0 HIT:          0 MISS:          0
cpu0_DTLB PREFETCH REQUESTED:          0 ISSUED:          0 USEFUL:          0 USELESS:          0
cpu0_DTLB AVERAGE MISS LATENCY: 8.758 cycles
cpu0_ITLB TOTAL        ACCESS:      14175 HIT:      14175 MISS:          0
cpu0_ITLB LOAD         ACCESS:      14175 HIT:      14175 MISS:          0
cpu0_ITLB RFO          ACCESS:          0 HIT:          0 MISS:          0
cpu0_ITLB PREFETCH     ACCESS:          0 HIT:          0 MISS:          0
cpu0_ITLB WRITE        ACCESS:          0 HIT:          0 MISS:          0
cpu0_ITLB TRANSLATION  ACCESS:          0 HIT:          0 MISS:          0
cpu0_ITLB PREFETCH REQUESTED:          0 ISSUED:          0 USEFUL:          0 USELESS:          0
cpu0_ITLB AVERAGE MISS LATENCY: -nan cycles
cpu0_L1D TOTAL        ACCESS:   15857080 HIT:   12331429 MISS:    3525651
cpu0_L1D LOAD         ACCESS:    7122156 HIT:    5559019 MISS:    1563137
cpu0_L1D RFO          ACCESS:          0 HIT:          0 MISS:          0
cpu0_L1D PREFETCH     ACCESS:    6134244 HIT:    4460228 MISS:    1674016
cpu0_L1D WRITE        ACCESS:    2592487 HIT:    2308236 MISS:     284251
cpu0_L1D TRANSLATION  ACCESS:       8193 HIT:       3946 MISS:       4247
cpu0_L1D PREFETCH REQUESTED:    7803349 ISSUED:    6134244 USEFUL:     276838 USELESS:     756322
cpu0_L1D AVERAGE MISS LATENCY: 52.35 cycles
cpu0_L1I TOTAL        ACCESS:      16035 HIT:      16035 MISS:          0
cpu0_L1I LOAD         ACCESS:      16035 HIT:      16035 MISS:          0
cpu0_L1I RFO          ACCESS:          0 HIT:          0 MISS:          0
cpu0_L1I PREFETCH     ACCESS:          0 HIT:          0 MISS:          0
cpu0_L1I WRITE        ACCESS:          0 HIT:          0 MISS:          0
cpu0_L1I TRANSLATION  ACCESS:          0 HIT:          0 MISS:          0
cpu0_L1I PREFETCH REQUESTED:          0 ISSUED:          0 USEFUL:          0 USELESS:          0
cpu0_L1I AVERAGE MISS LATENCY: -nan cycles
cpu0_L2C TOTAL        ACCESS:    2472120 HIT:     657468 MISS:    1814652
cpu0_L2C LOAD         ACCESS:    1054388 HIT:     276556 MISS:     777832
cpu0_L2C RFO          ACCESS:      97563 HIT:      22181 MISS:      75382
cpu0_L2C PREFETCH     ACCESS:    1172187 HIT:     213929 MISS:     958258
cpu0_L2C WRITE        ACCESS:     143735 HIT:     143488 MISS:        247
cpu0_L2C TRANSLATION  ACCESS:       4247 HIT:       1314 MISS:       2933
cpu0_L2C PREFETCH REQUESTED:     138956 ISSUED:     138956 USEFUL:      46204 USELESS:       7221
cpu0_L2C AVERAGE MISS LATENCY: 106.9 cycles
cpu0_STLB TOTAL        ACCESS:     639438 HIT:     631309 MISS:       8129
cpu0_STLB LOAD         ACCESS:     639438 HIT:     631309 MISS:       8129
cpu0_STLB RFO          ACCESS:          0 HIT:          0 MISS:          0
cpu0_STLB PREFETCH     ACCESS:          0 HIT:          0 MISS:          0
cpu0_STLB WRITE        ACCESS:          0 HIT:          0 MISS:          0
cpu0_STLB TRANSLATION  ACCESS:          0 HIT:          0 MISS:          0
cpu0_STLB PREFETCH REQUESTED:          0 ISSUED:          0 USEFUL:          0 USELESS:          0
cpu0_STLB AVERAGE MISS LATENCY: 220.6 cycles

DRAM Statistics

Channel 0 RQ ROW_BUFFER_HIT:     199488
  ROW_BUFFER_MISS:     363989
 AVG DBUS CONGESTED CYCLE: 3.834
WQ ROW_BUFFER_HIT: Channel 0 
  ROW_BUFFER_MISS:       1889
  FULL:        795
