WARNING: physical memory size is smaller than virtual memory size.

*** ChampSim Multicore Out-of-Order Simulator ***
Warmup Instructions: 25000000
Simulation Instructions: 25000000
Number of CPUs: 1
Page size: 4096

Off-chip DRAM Size: 4 GiB Channels: 1 Width: 64-bit Data Race: 800 MT/s
Heartbeat CPU 0 instructions: 10000003 cycles: 2500090 heartbeat IPC: 4 cumulative IPC: 4 (Simulation time: 00 hr 00 min 31 sec)
Heartbeat CPU 0 instructions: 20000003 cycles: 5000090 heartbeat IPC: 4 cumulative IPC: 4 (Simulation time: 00 hr 01 min 02 sec)
Warmup finished CPU 0 instructions: 25000003 cycles: 6250091 cumulative IPC: 4 (Simulation time: 00 hr 01 min 18 sec)
Warmup complete CPU 0 instructions: 25000003 cycles: 6250091 cumulative IPC: 4 (Simulation time: 00 hr 01 min 18 sec)
Heartbeat CPU 0 instructions: 30000002 cycles: 31357882 heartbeat IPC: 0.3794 cumulative IPC: 0.1991 (Simulation time: 00 hr 03 min 57 sec)
Heartbeat CPU 0 instructions: 40000000 cycles: 83413815 heartbeat IPC: 0.1921 cumulative IPC: 0.1944 (Simulation time: 00 hr 08 min 26 sec)
Heartbeat CPU 0 instructions: 50000003 cycles: 133569791 heartbeat IPC: 0.1994 cumulative IPC: 0.1964 (Simulation time: 00 hr 11 min 34 sec)
Simulation finished CPU 0 instructions: 25000000 cycles: 127319701 cumulative IPC: 0.1964 (Simulation time: 00 hr 11 min 34 sec)
Simulation complete CPU 0 instructions: 25000000 cycles: 127319701 cumulative IPC: 0.1964 (Simulation time: 00 hr 11 min 34 sec)

ChampSim completed all CPUs

=== Simulation ===
CPU 0 runs ./traces/605.mcf_s-1536B.champsimtrace.xz
Region of Interest Statistics

CPU 0 cumulative IPC: 0.1964 instructions: 25000000 cycles: 127319701
CPU 0 Branch Prediction Accuracy: 99.97% MPKI: 0.0528 Average ROB Occupancy at Mispredict: 287.9
Branch type MPKI
BRANCH_DIRECT_JUMP: 0
BRANCH_INDIRECT: 0
BRANCH_CONDITIONAL: 0.0528
BRANCH_DIRECT_CALL: 0
BRANCH_INDIRECT_CALL: 0
BRANCH_RETURN: 0

LLC TOTAL        ACCESS:    2866442 HIT:    1689991 MISS:    1176451
LLC LOAD         ACCESS:     931298 HIT:     787034 MISS:     144264
LLC RFO          ACCESS:      69358 HIT:      68664 MISS:        694
LLC PREFETCH     ACCESS:     746441 HIT:     174998 MISS:     571443
LLC WRITE        ACCESS:     554556 HIT:     552423 MISS:       2133
LLC TRANSLATION  ACCESS:     564789 HIT:     106872 MISS:     457917
LLC PREFETCH REQUESTED:          0 ISSUED:          0 USEFUL:          0 USELESS:          0
LLC AVERAGE MISS LATENCY: 1062 cycles
cpu0_DTLB TOTAL        ACCESS:    4345785 HIT:    2904707 MISS:    1441078
cpu0_DTLB LOAD         ACCESS:    4345785 HIT:    2904707 MISS:    1441078
cpu0_DTLB RFO          ACCESS:          0 HIT:          0 MISS:          0
cpu0_DTLB PREFETCH     ACCESS:          0 HIT:          0 MISS:          0
cpu0_DTLB WRITE        ACCESS:          0 HIT:          0 MISS:          0
cpu0_DTLB TRANSLATION  ACCESS:          0 HIT:          0 MISS:          0
cpu0_DTLB PREFETCH REQUESTED:          0 ISSUED:          0 USEFUL:          0 USELESS:          0
cpu0_DTLB AVERAGE MISS LATENCY: 356.5 cycles
cpu0_ITLB TOTAL        ACCESS:          0 HIT:          0 MISS:          0
cpu0_ITLB LOAD         ACCESS:          0 HIT:          0 MISS:          0
cpu0_ITLB RFO          ACCESS:          0 HIT:          0 MISS:          0
cpu0_ITLB PREFETCH     ACCESS:          0 HIT:          0 MISS:          0
cpu0_ITLB WRITE        ACCESS:          0 HIT:          0 MISS:          0
cpu0_ITLB TRANSLATION  ACCESS:          0 HIT:          0 MISS:          0
cpu0_ITLB PREFETCH REQUESTED:          0 ISSUED:          0 USEFUL:          0 USELESS:          0
cpu0_ITLB AVERAGE MISS LATENCY: -nan cycles
cpu0_L1D TOTAL        ACCESS:   10083571 HIT:    5388635 MISS:    4694936
cpu0_L1D LOAD         ACCESS:    4161347 HIT:    2184078 MISS:    1977269
cpu0_L1D RFO          ACCESS:          0 HIT:          0 MISS:          0
cpu0_L1D PREFETCH     ACCESS:    4219196 HIT:    2172291 MISS:    2046905
cpu0_L1D WRITE        ACCESS:    1036044 HIT:     959501 MISS:      76543
cpu0_L1D TRANSLATION  ACCESS:     666984 HIT:      72765 MISS:     594219
cpu0_L1D PREFETCH REQUESTED:    5431489 ISSUED:    4219192 USEFUL:       3323 USELESS:     958759
cpu0_L1D AVERAGE MISS LATENCY: 280.6 cycles
cpu0_L1I TOTAL        ACCESS:          0 HIT:          0 MISS:          0
cpu0_L1I LOAD         ACCESS:          0 HIT:          0 MISS:          0
cpu0_L1I RFO          ACCESS:          0 HIT:          0 MISS:          0
cpu0_L1I PREFETCH     ACCESS:          0 HIT:          0 MISS:          0
cpu0_L1I WRITE        ACCESS:          0 HIT:          0 MISS:          0
cpu0_L1I TRANSLATION  ACCESS:          0 HIT:          0 MISS:          0
cpu0_L1I PREFETCH REQUESTED:          0 ISSUED:          0 USEFUL:          0 USELESS:          0
cpu0_L1I AVERAGE MISS LATENCY: -nan cycles
cpu0_L2C TOTAL        ACCESS:    3523001 HIT:    1204194 MISS:    2318807
cpu0_L2C LOAD         ACCESS:    1233901 HIT:     300722 MISS:     933179
cpu0_L2C RFO          ACCESS:      76109 HIT:       6751 MISS:      69358
cpu0_L2C PREFETCH     ACCESS:    1059435 HIT:     307955 MISS:     751480
cpu0_L2C WRITE        ACCESS:     561123 HIT:     561122 MISS:          1
cpu0_L2C TRANSLATION  ACCESS:     592433 HIT:      27644 MISS:     564789
cpu0_L2C PREFETCH REQUESTED:      97362 ISSUED:      97362 USEFUL:      21200 USELESS:      26964
cpu0_L2C AVERAGE MISS LATENCY: 558.6 cycles
cpu0_STLB TOTAL        ACCESS:     663809 HIT:     101771 MISS:     562038
cpu0_STLB LOAD         ACCESS:     663809 HIT:     101771 MISS:     562038
cpu0_STLB RFO          ACCESS:          0 HIT:          0 MISS:          0
cpu0_STLB PREFETCH     ACCESS:          0 HIT:          0 MISS:          0
cpu0_STLB WRITE        ACCESS:          0 HIT:          0 MISS:          0
cpu0_STLB TRANSLATION  ACCESS:          0 HIT:          0 MISS:          0
cpu0_STLB PREFETCH REQUESTED:          0 ISSUED:          0 USEFUL:          0 USELESS:          0
cpu0_STLB AVERAGE MISS LATENCY: 915.4 cycles

DRAM Statistics

Channel 0 RQ ROW_BUFFER_HIT:      73909
  ROW_BUFFER_MISS:    1099999
 AVG DBUS CONGESTED CYCLE: 3.973
WQ ROW_BUFFER_HIT: Channel 0 
  ROW_BUFFER_MISS:       1510
  FULL:     554068
