WARNING: physical memory size is smaller than virtual memory size.

*** ChampSim Multicore Out-of-Order Simulator ***
Warmup Instructions: 25000000
Simulation Instructions: 25000000
Number of CPUs: 1
Page size: 4096

Off-chip DRAM Size: 4 GiB Channels: 1 Width: 64-bit Data Race: 800 MT/s
Heartbeat CPU 0 instructions: 10000002 cycles: 2511479 heartbeat IPC: 3.982 cumulative IPC: 3.982 (Simulation time: 00 hr 00 min 38 sec)
Heartbeat CPU 0 instructions: 20000002 cycles: 5022538 heartbeat IPC: 3.982 cumulative IPC: 3.982 (Simulation time: 00 hr 01 min 17 sec)
Warmup finished CPU 0 instructions: 25000003 cycles: 6278749 cumulative IPC: 3.982 (Simulation time: 00 hr 01 min 37 sec)
Warmup complete CPU 0 instructions: 25000003 cycles: 6278749 cumulative IPC: 3.982 (Simulation time: 00 hr 01 min 37 sec)
Heartbeat CPU 0 instructions: 30000002 cycles: 47661234 heartbeat IPC: 0.2345 cumulative IPC: 0.1208 (Simulation time: 00 hr 05 min 25 sec)
Heartbeat CPU 0 instructions: 40000000 cycles: 127527716 heartbeat IPC: 0.1252 cumulative IPC: 0.1237 (Simulation time: 00 hr 10 min 36 sec)
Heartbeat CPU 0 instructions: 50000000 cycles: 206281081 heartbeat IPC: 0.127 cumulative IPC: 0.125 (Simulation time: 00 hr 14 min 26 sec)
Simulation finished CPU 0 instructions: 25000001 cycles: 200002334 cumulative IPC: 0.125 (Simulation time: 00 hr 14 min 26 sec)
Simulation complete CPU 0 instructions: 25000001 cycles: 200002334 cumulative IPC: 0.125 (Simulation time: 00 hr 14 min 26 sec)

ChampSim completed all CPUs

=== Simulation ===
CPU 0 runs ./traces/605.mcf_s-1554B.champsimtrace.xz
Region of Interest Statistics

CPU 0 cumulative IPC: 0.125 instructions: 25000001 cycles: 200002334
CPU 0 Branch Prediction Accuracy: 97.34% MPKI: 4.839 Average ROB Occupancy at Mispredict: 44.41
Branch type MPKI
BRANCH_DIRECT_JUMP: 0
BRANCH_INDIRECT: 0
BRANCH_CONDITIONAL: 4.84
BRANCH_DIRECT_CALL: 0
BRANCH_INDIRECT_CALL: 0
BRANCH_RETURN: 0

LLC TOTAL        ACCESS:    6393920 HIT:    1527620 MISS:    4866300
LLC LOAD         ACCESS:    3360865 HIT:     472443 MISS:    2888422
LLC RFO          ACCESS:      72869 HIT:         27 MISS:      72842
LLC PREFETCH     ACCESS:    2868015 HIT:     964487 MISS:    1903528
LLC WRITE        ACCESS:      91598 HIT:      90447 MISS:       1151
LLC TRANSLATION  ACCESS:        573 HIT:        216 MISS:        357
LLC PREFETCH REQUESTED:          0 ISSUED:          0 USEFUL:          0 USELESS:          0
LLC AVERAGE MISS LATENCY: 646 cycles
cpu0_DTLB TOTAL        ACCESS:    6381127 HIT:    6247009 MISS:     134118
cpu0_DTLB LOAD         ACCESS:    6381127 HIT:    6247009 MISS:     134118
cpu0_DTLB RFO          ACCESS:          0 HIT:          0 MISS:          0
cpu0_DTLB PREFETCH     ACCESS:          0 HIT:          0 MISS:          0
cpu0_DTLB WRITE        ACCESS:          0 HIT:          0 MISS:          0
cpu0_DTLB TRANSLATION  ACCESS:          0 HIT:          0 MISS:          0
cpu0_DTLB PREFETCH REQUESTED:          0 ISSUED:          0 USEFUL:          0 USELESS:          0
cpu0_DTLB AVERAGE MISS LATENCY: 9.025 cycles
cpu0_ITLB TOTAL        ACCESS:          0 HIT:          0 MISS:          0
cpu0_ITLB LOAD         ACCESS:          0 HIT:          0 MISS:          0
cpu0_ITLB RFO          ACCESS:          0 HIT:          0 MISS:          0
cpu0_ITLB PREFETCH     ACCESS:          0 HIT:          0 MISS:          0
cpu0_ITLB WRITE        ACCESS:          0 HIT:          0 MISS:          0
cpu0_ITLB TRANSLATION  ACCESS:          0 HIT:          0 MISS:          0
cpu0_ITLB PREFETCH REQUESTED:          0 ISSUED:          0 USEFUL:          0 USELESS:          0
cpu0_ITLB AVERAGE MISS LATENCY: -nan cycles
cpu0_L1D TOTAL        ACCESS:    8840190 HIT:    4061236 MISS:    4778954
cpu0_L1D LOAD         ACCESS:    5558019 HIT:    1594847 MISS:    3963172
cpu0_L1D RFO          ACCESS:          0 HIT:          0 MISS:          0
cpu0_L1D PREFETCH     ACCESS:    1535710 HIT:    1018614 MISS:     517096
cpu0_L1D WRITE        ACCESS:    1744290 HIT:    1447698 MISS:     296592
cpu0_L1D TRANSLATION  ACCESS:       2171 HIT:         77 MISS:       2094
cpu0_L1D PREFETCH REQUESTED:  145837590 ISSUED:    1535711 USEFUL:      35056 USELESS:     259542
cpu0_L1D AVERAGE MISS LATENCY: 555 cycles
cpu0_L1I TOTAL        ACCESS:          0 HIT:          0 MISS:          0
cpu0_L1I LOAD         ACCESS:          0 HIT:          0 MISS:          0
cpu0_L1I RFO          ACCESS:          0 HIT:          0 MISS:          0
cpu0_L1I PREFETCH     ACCESS:          0 HIT:          0 MISS:          0
cpu0_L1I WRITE        ACCESS:          0 HIT:          0 MISS:          0
cpu0_L1I TRANSLATION  ACCESS:          0 HIT:          0 MISS:          0
cpu0_L1I PREFETCH REQUESTED:          0 ISSUED:          0 USEFUL:          0 USELESS:          0
cpu0_L1I AVERAGE MISS LATENCY: -nan cycles
cpu0_L2C TOTAL        ACCESS:    7110036 HIT:     482943 MISS:    6627093
cpu0_L2C LOAD         ACCESS:    3736422 HIT:     196074 MISS:    3540348
cpu0_L2C RFO          ACCESS:      75178 HIT:       2309 MISS:      72869
cpu0_L2C PREFETCH     ACCESS:    3202375 HIT:     189363 MISS:    3013012
cpu0_L2C WRITE        ACCESS:      93967 HIT:      93676 MISS:        291
cpu0_L2C TRANSLATION  ACCESS:       2094 HIT:       1521 MISS:        573
cpu0_L2C PREFETCH REQUESTED:    2907709 ISSUED:    2907709 USEFUL:     413195 USELESS:     103781
cpu0_L2C AVERAGE MISS LATENCY: 418.3 cycles
cpu0_STLB TOTAL        ACCESS:      98466 HIT:      96298 MISS:       2168
cpu0_STLB LOAD         ACCESS:      98466 HIT:      96298 MISS:       2168
cpu0_STLB RFO          ACCESS:          0 HIT:          0 MISS:          0
cpu0_STLB PREFETCH     ACCESS:          0 HIT:          0 MISS:          0
cpu0_STLB WRITE        ACCESS:          0 HIT:          0 MISS:          0
cpu0_STLB TRANSLATION  ACCESS:          0 HIT:          0 MISS:          0
cpu0_STLB PREFETCH REQUESTED:          0 ISSUED:          0 USEFUL:          0 USELESS:          0
cpu0_STLB AVERAGE MISS LATENCY: 289.6 cycles

DRAM Statistics

Channel 0 RQ ROW_BUFFER_HIT:    3249317
  ROW_BUFFER_MISS:     718131
 AVG DBUS CONGESTED CYCLE: 3.922
WQ ROW_BUFFER_HIT: Channel 0 
  ROW_BUFFER_MISS:      22820
  FULL:      67022
