WARNING: physical memory size is smaller than virtual memory size.

*** ChampSim Multicore Out-of-Order Simulator ***
Warmup Instructions: 25000000
Simulation Instructions: 25000000
Number of CPUs: 1
Page size: 4096

Off-chip DRAM Size: 4 GiB Channels: 1 Width: 64-bit Data Race: 800 MT/s
Heartbeat CPU 0 instructions: 10000000 cycles: 2505940 heartbeat IPC: 3.991 cumulative IPC: 3.991 (Simulation time: 00 hr 00 min 38 sec)
Heartbeat CPU 0 instructions: 20000001 cycles: 5011975 heartbeat IPC: 3.99 cumulative IPC: 3.99 (Simulation time: 00 hr 01 min 18 sec)
Warmup finished CPU 0 instructions: 25000001 cycles: 6263439 cumulative IPC: 3.991 (Simulation time: 00 hr 01 min 37 sec)
Warmup complete CPU 0 instructions: 25000001 cycles: 6263439 cumulative IPC: 3.991 (Simulation time: 00 hr 01 min 37 sec)
Heartbeat CPU 0 instructions: 30000000 cycles: 49800684 heartbeat IPC: 0.2233 cumulative IPC: 0.1148 (Simulation time: 00 hr 04 min 58 sec)
Heartbeat CPU 0 instructions: 40000002 cycles: 135832111 heartbeat IPC: 0.1162 cumulative IPC: 0.1158 (Simulation time: 00 hr 11 min 32 sec)
Heartbeat CPU 0 instructions: 50000000 cycles: 225217853 heartbeat IPC: 0.1119 cumulative IPC: 0.1142 (Simulation time: 00 hr 16 min 54 sec)
Simulation finished CPU 0 instructions: 25000000 cycles: 218954424 cumulative IPC: 0.1142 (Simulation time: 00 hr 16 min 54 sec)
Simulation complete CPU 0 instructions: 25000000 cycles: 218954424 cumulative IPC: 0.1142 (Simulation time: 00 hr 16 min 54 sec)

ChampSim completed all CPUs

=== Simulation ===
CPU 0 runs ./traces/605.mcf_s-782B.champsimtrace.xz
Region of Interest Statistics

CPU 0 cumulative IPC: 0.1142 instructions: 25000000 cycles: 218954424
CPU 0 Branch Prediction Accuracy: 83.68% MPKI: 49.87 Average ROB Occupancy at Mispredict: 4.398
Branch type MPKI
BRANCH_DIRECT_JUMP: 1.03
BRANCH_INDIRECT: 0
BRANCH_CONDITIONAL: 48.8
BRANCH_DIRECT_CALL: 4e-05
BRANCH_INDIRECT_CALL: 0.00088
BRANCH_RETURN: 0

LLC TOTAL        ACCESS:    5949394 HIT:    3490104 MISS:    2459290
LLC LOAD         ACCESS:    2593701 HIT:    1798325 MISS:     795376
LLC RFO          ACCESS:       7270 HIT:       6225 MISS:       1045
LLC PREFETCH     ACCESS:    3261853 HIT:    1603720 MISS:    1658133
LLC WRITE        ACCESS:      78654 HIT:      78473 MISS:        181
LLC TRANSLATION  ACCESS:       7916 HIT:       3361 MISS:       4555
LLC PREFETCH REQUESTED:          0 ISSUED:          0 USEFUL:          0 USELESS:          0
LLC AVERAGE MISS LATENCY: 322.9 cycles
cpu0_DTLB TOTAL        ACCESS:    6871603 HIT:    4544725 MISS:    2326878
cpu0_DTLB LOAD         ACCESS:    6871603 HIT:    4544725 MISS:    2326878
cpu0_DTLB RFO          ACCESS:          0 HIT:          0 MISS:          0
cpu0_DTLB PREFETCH     ACCESS:          0 HIT:          0 MISS:          0
cpu0_DTLB WRITE        ACCESS:          0 HIT:          0 MISS:          0
cpu0_DTLB TRANSLATION  ACCESS:          0 HIT:          0 MISS:          0
cpu0_DTLB PREFETCH REQUESTED:          0 ISSUED:          0 USEFUL:          0 USELESS:          0
cpu0_DTLB AVERAGE MISS LATENCY: 10.34 cycles
cpu0_ITLB TOTAL        ACCESS:      25169 HIT:      25169 MISS:          0
cpu0_ITLB LOAD         ACCESS:      25169 HIT:      25169 MISS:          0
cpu0_ITLB RFO          ACCESS:          0 HIT:          0 MISS:          0
cpu0_ITLB PREFETCH     ACCESS:          0 HIT:          0 MISS:          0
cpu0_ITLB WRITE        ACCESS:          0 HIT:          0 MISS:          0
cpu0_ITLB TRANSLATION  ACCESS:          0 HIT:          0 MISS:          0
cpu0_ITLB PREFETCH REQUESTED:          0 ISSUED:          0 USEFUL:          0 USELESS:          0
cpu0_ITLB AVERAGE MISS LATENCY: -nan cycles
cpu0_L1D TOTAL        ACCESS:   13723628 HIT:    3433772 MISS:   10289856
cpu0_L1D LOAD         ACCESS:    7127088 HIT:    2312990 MISS:    4814098
cpu0_L1D RFO          ACCESS:          0 HIT:          0 MISS:          0
cpu0_L1D PREFETCH     ACCESS:    6111212 HIT:     679373 MISS:    5431839
cpu0_L1D WRITE        ACCESS:     456108 HIT:     425126 MISS:      30982
cpu0_L1D TRANSLATION  ACCESS:      29220 HIT:      16283 MISS:      12937
cpu0_L1D PREFETCH REQUESTED:   15225658 ISSUED:    6111204 USEFUL:     969557 USELESS:    2147387
cpu0_L1D AVERAGE MISS LATENCY: 79.9 cycles
cpu0_L1I TOTAL        ACCESS:      28033 HIT:      28033 MISS:          0
cpu0_L1I LOAD         ACCESS:      28033 HIT:      28033 MISS:          0
cpu0_L1I RFO          ACCESS:          0 HIT:          0 MISS:          0
cpu0_L1I PREFETCH     ACCESS:          0 HIT:          0 MISS:          0
cpu0_L1I WRITE        ACCESS:          0 HIT:          0 MISS:          0
cpu0_L1I TRANSLATION  ACCESS:          0 HIT:          0 MISS:          0
cpu0_L1I PREFETCH REQUESTED:          0 ISSUED:          0 USEFUL:          0 USELESS:          0
cpu0_L1I AVERAGE MISS LATENCY: -nan cycles
cpu0_L2C TOTAL        ACCESS:    6836750 HIT:     717252 MISS:    6119498
cpu0_L2C LOAD         ACCESS:    2965410 HIT:     318013 MISS:    2647397
cpu0_L2C RFO          ACCESS:       7445 HIT:        175 MISS:       7270
cpu0_L2C PREFETCH     ACCESS:    3767749 HIT:     310837 MISS:    3456912
cpu0_L2C WRITE        ACCESS:      83215 HIT:      83212 MISS:          3
cpu0_L2C TRANSLATION  ACCESS:      12931 HIT:       5015 MISS:       7916
cpu0_L2C PREFETCH REQUESTED:     650707 ISSUED:     650707 USEFUL:     181398 USELESS:      24677
cpu0_L2C AVERAGE MISS LATENCY: 143.8 cycles
cpu0_STLB TOTAL        ACCESS:    2202566 HIT:    2173568 MISS:      28998
cpu0_STLB LOAD         ACCESS:    2202566 HIT:    2173568 MISS:      28998
cpu0_STLB RFO          ACCESS:          0 HIT:          0 MISS:          0
cpu0_STLB PREFETCH     ACCESS:          0 HIT:          0 MISS:          0
cpu0_STLB WRITE        ACCESS:          0 HIT:          0 MISS:          0
cpu0_STLB TRANSLATION  ACCESS:          0 HIT:          0 MISS:          0
cpu0_STLB PREFETCH REQUESTED:          0 ISSUED:          0 USEFUL:          0 USELESS:          0
cpu0_STLB AVERAGE MISS LATENCY: 249.2 cycles

DRAM Statistics

Channel 0 RQ ROW_BUFFER_HIT:     642685
  ROW_BUFFER_MISS:    1700549
 AVG DBUS CONGESTED CYCLE: 3.842
WQ ROW_BUFFER_HIT: Channel 0 
  ROW_BUFFER_MISS:       6604
  FULL:      30083
