WARNING: physical memory size is smaller than virtual memory size.

*** ChampSim Multicore Out-of-Order Simulator ***
Warmup Instructions: 25000000
Simulation Instructions: 25000000
Number of CPUs: 1
Page size: 4096

Off-chip DRAM Size: 4 GiB Channels: 1 Width: 64-bit Data Race: 800 MT/s
Heartbeat CPU 0 instructions: 10000000 cycles: 3099480 heartbeat IPC: 3.226 cumulative IPC: 3.226 (Simulation time: 00 hr 00 min 31 sec)
Heartbeat CPU 0 instructions: 20000003 cycles: 6152965 heartbeat IPC: 3.275 cumulative IPC: 3.25 (Simulation time: 00 hr 01 min 02 sec)
Warmup finished CPU 0 instructions: 25000001 cycles: 7641608 cumulative IPC: 3.272 (Simulation time: 00 hr 01 min 18 sec)
Warmup complete CPU 0 instructions: 25000001 cycles: 7641608 cumulative IPC: 3.272 (Simulation time: 00 hr 01 min 18 sec)
Heartbeat CPU 0 instructions: 30000000 cycles: 17098649 heartbeat IPC: 0.9136 cumulative IPC: 0.5287 (Simulation time: 00 hr 02 min 15 sec)
Heartbeat CPU 0 instructions: 40000000 cycles: 36179389 heartbeat IPC: 0.5241 cumulative IPC: 0.5256 (Simulation time: 00 hr 04 min 05 sec)
Heartbeat CPU 0 instructions: 50000000 cycles: 60350356 heartbeat IPC: 0.4137 cumulative IPC: 0.4743 (Simulation time: 00 hr 06 min 28 sec)
Simulation finished CPU 0 instructions: 25000003 cycles: 52708750 cumulative IPC: 0.4743 (Simulation time: 00 hr 06 min 28 sec)
Simulation complete CPU 0 instructions: 25000003 cycles: 52708750 cumulative IPC: 0.4743 (Simulation time: 00 hr 06 min 28 sec)

ChampSim completed all CPUs

=== Simulation ===
CPU 0 runs ./traces/605.mcf_s-484B.champsimtrace.xz
Region of Interest Statistics

CPU 0 cumulative IPC: 0.4743 instructions: 25000003 cycles: 52708750
CPU 0 Branch Prediction Accuracy: 96.99% MPKI: 2.864 Average ROB Occupancy at Mispredict: 78.95
Branch type MPKI
BRANCH_DIRECT_JUMP: 0
BRANCH_INDIRECT: 0
BRANCH_CONDITIONAL: 2.86
BRANCH_DIRECT_CALL: 0
BRANCH_INDIRECT_CALL: 0
BRANCH_RETURN: 0

LLC TOTAL        ACCESS:     899624 HIT:     173343 MISS:     726281
LLC LOAD         ACCESS:     407773 HIT:      20821 MISS:     386952
LLC RFO          ACCESS:      47374 HIT:         43 MISS:      47331
LLC PREFETCH     ACCESS:     297940 HIT:       8431 MISS:     289509
LLC WRITE        ACCESS:     143245 HIT:     142113 MISS:       1132
LLC TRANSLATION  ACCESS:       3292 HIT:       1935 MISS:       1357
LLC PREFETCH REQUESTED:          0 ISSUED:          0 USEFUL:          0 USELESS:          0
LLC AVERAGE MISS LATENCY: 701.4 cycles
cpu0_DTLB TOTAL        ACCESS:    7874913 HIT:    7760666 MISS:     114247
cpu0_DTLB LOAD         ACCESS:    7874913 HIT:    7760666 MISS:     114247
cpu0_DTLB RFO          ACCESS:          0 HIT:          0 MISS:          0
cpu0_DTLB PREFETCH     ACCESS:          0 HIT:          0 MISS:          0
cpu0_DTLB WRITE        ACCESS:          0 HIT:          0 MISS:          0
cpu0_DTLB TRANSLATION  ACCESS:          0 HIT:          0 MISS:          0
cpu0_DTLB PREFETCH REQUESTED:          0 ISSUED:          0 USEFUL:          0 USELESS:          0
cpu0_DTLB AVERAGE MISS LATENCY: 28.4 cycles
cpu0_ITLB TOTAL        ACCESS:          0 HIT:          0 MISS:          0
cpu0_ITLB LOAD         ACCESS:          0 HIT:          0 MISS:          0
cpu0_ITLB RFO          ACCESS:          0 HIT:          0 MISS:          0
cpu0_ITLB PREFETCH     ACCESS:          0 HIT:          0 MISS:          0
cpu0_ITLB WRITE        ACCESS:          0 HIT:          0 MISS:          0
cpu0_ITLB TRANSLATION  ACCESS:          0 HIT:          0 MISS:          0
cpu0_ITLB PREFETCH REQUESTED:          0 ISSUED:          0 USEFUL:          0 USELESS:          0
cpu0_ITLB AVERAGE MISS LATENCY: -nan cycles
cpu0_L1D TOTAL        ACCESS:   13386558 HIT:   12482200 MISS:     904358
cpu0_L1D LOAD         ACCESS:    4614734 HIT:    4098962 MISS:     515772
cpu0_L1D RFO          ACCESS:          0 HIT:          0 MISS:          0
cpu0_L1D PREFETCH     ACCESS:    1558406 HIT:    1396894 MISS:     161512
cpu0_L1D WRITE        ACCESS:    7198133 HIT:    6979749 MISS:     218384
cpu0_L1D TRANSLATION  ACCESS:      15285 HIT:       6595 MISS:       8690
cpu0_L1D PREFETCH REQUESTED:   19006895 ISSUED:    1558400 USEFUL:      12618 USELESS:      73707
cpu0_L1D AVERAGE MISS LATENCY: 451.4 cycles
cpu0_L1I TOTAL        ACCESS:          0 HIT:          0 MISS:          0
cpu0_L1I LOAD         ACCESS:          0 HIT:          0 MISS:          0
cpu0_L1I RFO          ACCESS:          0 HIT:          0 MISS:          0
cpu0_L1I PREFETCH     ACCESS:          0 HIT:          0 MISS:          0
cpu0_L1I WRITE        ACCESS:          0 HIT:          0 MISS:          0
cpu0_L1I TRANSLATION  ACCESS:          0 HIT:          0 MISS:          0
cpu0_L1I PREFETCH REQUESTED:          0 ISSUED:          0 USEFUL:          0 USELESS:          0
cpu0_L1I AVERAGE MISS LATENCY: -nan cycles
cpu0_L2C TOTAL        ACCESS:    1053600 HIT:     274104 MISS:     779496
cpu0_L2C LOAD         ACCESS:     482595 HIT:      63662 MISS:     418933
cpu0_L2C RFO          ACCESS:      49392 HIT:       2018 MISS:      47374
cpu0_L2C PREFETCH     ACCESS:     353479 HIT:      44274 MISS:     309205
cpu0_L2C WRITE        ACCESS:     159444 HIT:     158752 MISS:        692
cpu0_L2C TRANSLATION  ACCESS:       8690 HIT:       5398 MISS:       3292
cpu0_L2C PREFETCH REQUESTED:     267077 ISSUED:     267077 USEFUL:      71143 USELESS:       8053
cpu0_L2C AVERAGE MISS LATENCY: 574.2 cycles
cpu0_STLB TOTAL        ACCESS:      54653 HIT:      39394 MISS:      15259
cpu0_STLB LOAD         ACCESS:      54653 HIT:      39394 MISS:      15259
cpu0_STLB RFO          ACCESS:          0 HIT:          0 MISS:          0
cpu0_STLB PREFETCH     ACCESS:          0 HIT:          0 MISS:          0
cpu0_STLB WRITE        ACCESS:          0 HIT:          0 MISS:          0
cpu0_STLB TRANSLATION  ACCESS:          0 HIT:          0 MISS:          0
cpu0_STLB PREFETCH REQUESTED:          0 ISSUED:          0 USEFUL:          0 USELESS:          0
cpu0_STLB AVERAGE MISS LATENCY: 313.2 cycles

DRAM Statistics

Channel 0 RQ ROW_BUFFER_HIT:     278041
  ROW_BUFFER_MISS:     346512
 AVG DBUS CONGESTED CYCLE: 3.919
WQ ROW_BUFFER_HIT: Channel 0 
  ROW_BUFFER_MISS:       6745
  FULL:     126006
