WARNING: physical memory size is smaller than virtual memory size.

*** ChampSim Multicore Out-of-Order Simulator ***
Warmup Instructions: 25000000
Simulation Instructions: 25000000
Number of CPUs: 1
Page size: 4096

Off-chip DRAM Size: 4 GiB Channels: 1 Width: 64-bit Data Race: 800 MT/s
Heartbeat CPU 0 instructions: 10000000 cycles: 3018797 heartbeat IPC: 3.313 cumulative IPC: 3.313 (Simulation time: 00 hr 00 min 35 sec)
Heartbeat CPU 0 instructions: 20000000 cycles: 5881282 heartbeat IPC: 3.493 cumulative IPC: 3.401 (Simulation time: 00 hr 01 min 12 sec)
Warmup finished CPU 0 instructions: 25000002 cycles: 7240805 cumulative IPC: 3.453 (Simulation time: 00 hr 01 min 31 sec)
Warmup complete CPU 0 instructions: 25000002 cycles: 7240805 cumulative IPC: 3.453 (Simulation time: 00 hr 01 min 31 sec)
Heartbeat CPU 0 instructions: 30000000 cycles: 30535479 heartbeat IPC: 0.4056 cumulative IPC: 0.2146 (Simulation time: 00 hr 03 min 57 sec)
Heartbeat CPU 0 instructions: 40000002 cycles: 58426390 heartbeat IPC: 0.3585 cumulative IPC: 0.2931 (Simulation time: 00 hr 06 min 21 sec)
Heartbeat CPU 0 instructions: 50000000 cycles: 91337947 heartbeat IPC: 0.3038 cumulative IPC: 0.2973 (Simulation time: 00 hr 08 min 53 sec)
Simulation finished CPU 0 instructions: 25000002 cycles: 84097144 cumulative IPC: 0.2973 (Simulation time: 00 hr 08 min 53 sec)
Simulation complete CPU 0 instructions: 25000002 cycles: 84097144 cumulative IPC: 0.2973 (Simulation time: 00 hr 08 min 53 sec)

ChampSim completed all CPUs

=== Simulation ===
CPU 0 runs ./traces/605.mcf_s-472B.champsimtrace.xz
Region of Interest Statistics

CPU 0 cumulative IPC: 0.2973 instructions: 25000002 cycles: 84097144
CPU 0 Branch Prediction Accuracy: 97.33% MPKI: 2.992 Average ROB Occupancy at Mispredict: 77.09
Branch type MPKI
BRANCH_DIRECT_JUMP: 0
BRANCH_INDIRECT: 0
BRANCH_CONDITIONAL: 2.99
BRANCH_DIRECT_CALL: 0
BRANCH_INDIRECT_CALL: 0
BRANCH_RETURN: 0

LLC TOTAL        ACCESS:    1952560 HIT:     270851 MISS:    1681709
LLC LOAD         ACCESS:     988378 HIT:      70438 MISS:     917940
LLC RFO          ACCESS:      54814 HIT:         68 MISS:      54746
LLC PREFETCH     ACCESS:     776090 HIT:      71722 MISS:     704368
LLC WRITE        ACCESS:     130083 HIT:     127200 MISS:       2883
LLC TRANSLATION  ACCESS:       3195 HIT:       1423 MISS:       1772
LLC PREFETCH REQUESTED:          0 ISSUED:          0 USEFUL:          0 USELESS:          0
LLC AVERAGE MISS LATENCY: 715.2 cycles
cpu0_DTLB TOTAL        ACCESS:    7568425 HIT:    7392856 MISS:     175569
cpu0_DTLB LOAD         ACCESS:    7568425 HIT:    7392856 MISS:     175569
cpu0_DTLB RFO          ACCESS:          0 HIT:          0 MISS:          0
cpu0_DTLB PREFETCH     ACCESS:          0 HIT:          0 MISS:          0
cpu0_DTLB WRITE        ACCESS:          0 HIT:          0 MISS:          0
cpu0_DTLB TRANSLATION  ACCESS:          0 HIT:          0 MISS:          0
cpu0_DTLB PREFETCH REQUESTED:          0 ISSUED:          0 USEFUL:          0 USELESS:          0
cpu0_DTLB AVERAGE MISS LATENCY: 22 cycles
cpu0_ITLB TOTAL        ACCESS:          0 HIT:          0 MISS:          0
cpu0_ITLB LOAD         ACCESS:          0 HIT:          0 MISS:          0
cpu0_ITLB RFO          ACCESS:          0 HIT:          0 MISS:          0
cpu0_ITLB PREFETCH     ACCESS:          0 HIT:          0 MISS:          0
cpu0_ITLB WRITE        ACCESS:          0 HIT:          0 MISS:          0
cpu0_ITLB TRANSLATION  ACCESS:          0 HIT:          0 MISS:          0
cpu0_ITLB PREFETCH REQUESTED:          0 ISSUED:          0 USEFUL:          0 USELESS:          0
cpu0_ITLB AVERAGE MISS LATENCY: -nan cycles
cpu0_L1D TOTAL        ACCESS:   12420079 HIT:   10757510 MISS:    1662569
cpu0_L1D LOAD         ACCESS:    4778936 HIT:    3585064 MISS:    1193872
cpu0_L1D RFO          ACCESS:          0 HIT:          0 MISS:          0
cpu0_L1D PREFETCH     ACCESS:    1462977 HIT:    1262706 MISS:     200271
cpu0_L1D WRITE        ACCESS:    6147197 HIT:    5890411 MISS:     256786
cpu0_L1D TRANSLATION  ACCESS:      30969 HIT:      19329 MISS:      11640
cpu0_L1D PREFETCH REQUESTED:   52176942 ISSUED:    1462977 USEFUL:      11159 USELESS:      98611
cpu0_L1D AVERAGE MISS LATENCY: 581.3 cycles
cpu0_L1I TOTAL        ACCESS:          0 HIT:          0 MISS:          0
cpu0_L1I LOAD         ACCESS:          0 HIT:          0 MISS:          0
cpu0_L1I RFO          ACCESS:          0 HIT:          0 MISS:          0
cpu0_L1I PREFETCH     ACCESS:          0 HIT:          0 MISS:          0
cpu0_L1I WRITE        ACCESS:          0 HIT:          0 MISS:          0
cpu0_L1I TRANSLATION  ACCESS:          0 HIT:          0 MISS:          0
cpu0_L1I PREFETCH REQUESTED:          0 ISSUED:          0 USEFUL:          0 USELESS:          0
cpu0_L1I AVERAGE MISS LATENCY: -nan cycles
cpu0_L2C TOTAL        ACCESS:    2213225 HIT:     312802 MISS:    1900423
cpu0_L2C LOAD         ACCESS:    1116262 HIT:      88129 MISS:    1028133
cpu0_L2C RFO          ACCESS:      58872 HIT:       4058 MISS:      54814
cpu0_L2C PREFETCH     ACCESS:     867399 HIT:      54037 MISS:     813362
cpu0_L2C WRITE        ACCESS:     159062 HIT:     158143 MISS:        919
cpu0_L2C TRANSLATION  ACCESS:      11630 HIT:       8435 MISS:       3195
cpu0_L2C PREFETCH REQUESTED:     757644 ISSUED:     757644 USEFUL:     107538 USELESS:      22762
cpu0_L2C AVERAGE MISS LATENCY: 532.6 cycles
cpu0_STLB TOTAL        ACCESS:      59549 HIT:      28608 MISS:      30941
cpu0_STLB LOAD         ACCESS:      59549 HIT:      28608 MISS:      30941
cpu0_STLB RFO          ACCESS:          0 HIT:          0 MISS:          0
cpu0_STLB PREFETCH     ACCESS:          0 HIT:          0 MISS:          0
cpu0_STLB WRITE        ACCESS:          0 HIT:          0 MISS:          0
cpu0_STLB TRANSLATION  ACCESS:          0 HIT:          0 MISS:          0
cpu0_STLB PREFETCH REQUESTED:          0 ISSUED:          0 USEFUL:          0 USELESS:          0
cpu0_STLB AVERAGE MISS LATENCY: 325.3 cycles

DRAM Statistics

Channel 0 RQ ROW_BUFFER_HIT:     878520
  ROW_BUFFER_MISS:     451785
 AVG DBUS CONGESTED CYCLE: 3.916
WQ ROW_BUFFER_HIT: Channel 0 
  ROW_BUFFER_MISS:      12141
  FULL:     115818
