WARNING: physical memory size is smaller than virtual memory size.

*** ChampSim Multicore Out-of-Order Simulator ***
Warmup Instructions: 25000000
Simulation Instructions: 25000000
Number of CPUs: 1
Page size: 4096

Off-chip DRAM Size: 4 GiB Channels: 1 Width: 64-bit Data Race: 800 MT/s
Heartbeat CPU 0 instructions: 10000000 cycles: 3499441 heartbeat IPC: 2.858 cumulative IPC: 2.858 (Simulation time: 00 hr 00 min 47 sec)
Heartbeat CPU 0 instructions: 20000000 cycles: 6997657 heartbeat IPC: 2.859 cumulative IPC: 2.858 (Simulation time: 00 hr 01 min 35 sec)
Warmup finished CPU 0 instructions: 25000001 cycles: 8748863 cumulative IPC: 2.858 (Simulation time: 00 hr 01 min 59 sec)
Warmup complete CPU 0 instructions: 25000001 cycles: 8748863 cumulative IPC: 2.858 (Simulation time: 00 hr 01 min 59 sec)
Heartbeat CPU 0 instructions: 30000003 cycles: 75981201 heartbeat IPC: 0.145 cumulative IPC: 0.07437 (Simulation time: 00 hr 06 min 50 sec)
Heartbeat CPU 0 instructions: 40000003 cycles: 210257492 heartbeat IPC: 0.07447 cumulative IPC: 0.07444 (Simulation time: 00 hr 13 min 10 sec)
Heartbeat CPU 0 instructions: 50000000 cycles: 345022351 heartbeat IPC: 0.0742 cumulative IPC: 0.07434 (Simulation time: 00 hr 18 min 24 sec)
Simulation finished CPU 0 instructions: 25000003 cycles: 336273490 cumulative IPC: 0.07434 (Simulation time: 00 hr 18 min 24 sec)
Simulation complete CPU 0 instructions: 25000003 cycles: 336273490 cumulative IPC: 0.07434 (Simulation time: 00 hr 18 min 24 sec)

ChampSim completed all CPUs

=== Simulation ===
CPU 0 runs ./traces/605.mcf_s-1644B.champsimtrace.xz
Region of Interest Statistics

CPU 0 cumulative IPC: 0.07434 instructions: 25000003 cycles: 336273490
CPU 0 Branch Prediction Accuracy: 93.34% MPKI: 8.275 Average ROB Occupancy at Mispredict: 80.51
Branch type MPKI
BRANCH_DIRECT_JUMP: 0
BRANCH_INDIRECT: 0
BRANCH_CONDITIONAL: 8.27
BRANCH_DIRECT_CALL: 0
BRANCH_INDIRECT_CALL: 0
BRANCH_RETURN: 0

LLC TOTAL        ACCESS:    5479845 HIT:    2992982 MISS:    2486863
LLC LOAD         ACCESS:     757041 HIT:     440299 MISS:     316742
LLC RFO          ACCESS:    1093077 HIT:        306 MISS:    1092771
LLC PREFETCH     ACCESS:     803706 HIT:     371179 MISS:     432527
LLC WRITE        ACCESS:    2215538 HIT:    2145406 MISS:      70132
LLC TRANSLATION  ACCESS:     610483 HIT:      35792 MISS:     574691
LLC PREFETCH REQUESTED:          0 ISSUED:          0 USEFUL:          0 USELESS:          0
LLC AVERAGE MISS LATENCY: 938.2 cycles
cpu0_DTLB TOTAL        ACCESS:    8321789 HIT:    5170705 MISS:    3151084
cpu0_DTLB LOAD         ACCESS:    8321789 HIT:    5170705 MISS:    3151084
cpu0_DTLB RFO          ACCESS:          0 HIT:          0 MISS:          0
cpu0_DTLB PREFETCH     ACCESS:          0 HIT:          0 MISS:          0
cpu0_DTLB WRITE        ACCESS:          0 HIT:          0 MISS:          0
cpu0_DTLB TRANSLATION  ACCESS:          0 HIT:          0 MISS:          0
cpu0_DTLB PREFETCH REQUESTED:          0 ISSUED:          0 USEFUL:          0 USELESS:          0
cpu0_DTLB AVERAGE MISS LATENCY: 194.6 cycles
cpu0_ITLB TOTAL        ACCESS:          0 HIT:          0 MISS:          0
cpu0_ITLB LOAD         ACCESS:          0 HIT:          0 MISS:          0
cpu0_ITLB RFO          ACCESS:          0 HIT:          0 MISS:          0
cpu0_ITLB PREFETCH     ACCESS:          0 HIT:          0 MISS:          0
cpu0_ITLB WRITE        ACCESS:          0 HIT:          0 MISS:          0
cpu0_ITLB TRANSLATION  ACCESS:          0 HIT:          0 MISS:          0
cpu0_ITLB PREFETCH REQUESTED:          0 ISSUED:          0 USEFUL:          0 USELESS:          0
cpu0_ITLB AVERAGE MISS LATENCY: -nan cycles
cpu0_L1D TOTAL        ACCESS:   15049435 HIT:    6385188 MISS:    8664247
cpu0_L1D LOAD         ACCESS:    3031462 HIT:    1638770 MISS:    1392692
cpu0_L1D RFO          ACCESS:          0 HIT:          0 MISS:          0
cpu0_L1D PREFETCH     ACCESS:    2635238 HIT:    1069765 MISS:    1565473
cpu0_L1D WRITE        ACCESS:    8516057 HIT:    3596072 MISS:    4919985
cpu0_L1D TRANSLATION  ACCESS:     866678 HIT:      80581 MISS:     786097
cpu0_L1D PREFETCH REQUESTED:    3187062 ISSUED:    2635230 USEFUL:     299652 USELESS:     475865
cpu0_L1D AVERAGE MISS LATENCY: 252.2 cycles
cpu0_L1I TOTAL        ACCESS:          0 HIT:          0 MISS:          0
cpu0_L1I LOAD         ACCESS:          0 HIT:          0 MISS:          0
cpu0_L1I RFO          ACCESS:          0 HIT:          0 MISS:          0
cpu0_L1I PREFETCH     ACCESS:          0 HIT:          0 MISS:          0
cpu0_L1I WRITE        ACCESS:          0 HIT:          0 MISS:          0
cpu0_L1I TRANSLATION  ACCESS:          0 HIT:          0 MISS:          0
cpu0_L1I PREFETCH REQUESTED:          0 ISSUED:          0 USEFUL:          0 USELESS:          0
cpu0_L1I AVERAGE MISS LATENCY: -nan cycles
cpu0_L2C TOTAL        ACCESS:    6015869 HIT:    2637788 MISS:    3378081
cpu0_L2C LOAD         ACCESS:     869696 HIT:      97312 MISS:     772384
cpu0_L2C RFO          ACCESS:    1094518 HIT:       1441 MISS:    1093077
cpu0_L2C PREFETCH     ACCESS:    1004771 HIT:     104452 MISS:     900319
cpu0_L2C WRITE        ACCESS:    2263791 HIT:    2261973 MISS:       1818
cpu0_L2C TRANSLATION  ACCESS:     783093 HIT:     172610 MISS:     610483
cpu0_L2C PREFETCH REQUESTED:     229181 ISSUED:     229181 USEFUL:     135721 USELESS:       9943
cpu0_L2C AVERAGE MISS LATENCY: 707.1 cycles
cpu0_STLB TOTAL        ACCESS:     727456 HIT:     130417 MISS:     597039
cpu0_STLB LOAD         ACCESS:     727456 HIT:     130417 MISS:     597039
cpu0_STLB RFO          ACCESS:          0 HIT:          0 MISS:          0
cpu0_STLB PREFETCH     ACCESS:          0 HIT:          0 MISS:          0
cpu0_STLB WRITE        ACCESS:          0 HIT:          0 MISS:          0
cpu0_STLB TRANSLATION  ACCESS:          0 HIT:          0 MISS:          0
cpu0_STLB PREFETCH REQUESTED:          0 ISSUED:          0 USEFUL:          0 USELESS:          0
cpu0_STLB AVERAGE MISS LATENCY: 1082 cycles

DRAM Statistics

Channel 0 RQ ROW_BUFFER_HIT:     107277
  ROW_BUFFER_MISS:    2308358
 AVG DBUS CONGESTED CYCLE: 3.985
WQ ROW_BUFFER_HIT: Channel 0 
  ROW_BUFFER_MISS:       3978
  FULL:    1765651
