WARNING: physical memory size is smaller than virtual memory size.

*** ChampSim Multicore Out-of-Order Simulator ***
Warmup Instructions: 25000000
Simulation Instructions: 25000000
Number of CPUs: 1
Page size: 4096

Off-chip DRAM Size: 4 GiB Channels: 1 Width: 64-bit Data Race: 800 MT/s
Heartbeat CPU 0 instructions: 10000000 cycles: 2500791 heartbeat IPC: 3.999 cumulative IPC: 3.999 (Simulation time: 00 hr 00 min 29 sec)
Heartbeat CPU 0 instructions: 20000000 cycles: 5001197 heartbeat IPC: 3.999 cumulative IPC: 3.999 (Simulation time: 00 hr 00 min 59 sec)
Warmup finished CPU 0 instructions: 25000000 cycles: 6254233 cumulative IPC: 3.997 (Simulation time: 00 hr 01 min 13 sec)
Warmup complete CPU 0 instructions: 25000000 cycles: 6254233 cumulative IPC: 3.997 (Simulation time: 00 hr 01 min 13 sec)
Heartbeat CPU 0 instructions: 30000000 cycles: 24503335 heartbeat IPC: 0.5128 cumulative IPC: 0.274 (Simulation time: 00 hr 02 min 43 sec)
Heartbeat CPU 0 instructions: 40000001 cycles: 47761054 heartbeat IPC: 0.43 cumulative IPC: 0.3614 (Simulation time: 00 hr 04 min 44 sec)
Heartbeat CPU 0 instructions: 50000000 cycles: 153420418 heartbeat IPC: 0.09464 cumulative IPC: 0.1699 (Simulation time: 00 hr 12 min 16 sec)
Simulation finished CPU 0 instructions: 25000000 cycles: 147166186 cumulative IPC: 0.1699 (Simulation time: 00 hr 12 min 16 sec)
Simulation complete CPU 0 instructions: 25000000 cycles: 147166186 cumulative IPC: 0.1699 (Simulation time: 00 hr 12 min 16 sec)

ChampSim completed all CPUs

=== Simulation ===
CPU 0 runs ./traces/605.mcf_s-994B.champsimtrace.xz
Region of Interest Statistics

CPU 0 cumulative IPC: 0.1699 instructions: 25000000 cycles: 147166186
CPU 0 Branch Prediction Accuracy: 91.07% MPKI: 22.99 Average ROB Occupancy at Mispredict: 32.4
Branch type MPKI
BRANCH_DIRECT_JUMP: 0.125
BRANCH_INDIRECT: 0
BRANCH_CONDITIONAL: 22.9
BRANCH_DIRECT_CALL: 0
BRANCH_INDIRECT_CALL: 0.00236
BRANCH_RETURN: 4e-05

LLC TOTAL        ACCESS:    1513682 HIT:     375736 MISS:    1137946
LLC LOAD         ACCESS:     724140 HIT:     188176 MISS:     535964
LLC RFO          ACCESS:       1866 HIT:       1570 MISS:        296
LLC PREFETCH     ACCESS:     496137 HIT:     102899 MISS:     393238
LLC WRITE        ACCESS:      59046 HIT:      58365 MISS:        681
LLC TRANSLATION  ACCESS:     232493 HIT:      24726 MISS:     207767
LLC PREFETCH REQUESTED:          0 ISSUED:          0 USEFUL:          0 USELESS:          0
LLC AVERAGE MISS LATENCY: 297.2 cycles
cpu0_DTLB TOTAL        ACCESS:    7596063 HIT:    7132878 MISS:     463185
cpu0_DTLB LOAD         ACCESS:    7596063 HIT:    7132878 MISS:     463185
cpu0_DTLB RFO          ACCESS:          0 HIT:          0 MISS:          0
cpu0_DTLB PREFETCH     ACCESS:          0 HIT:          0 MISS:          0
cpu0_DTLB WRITE        ACCESS:          0 HIT:          0 MISS:          0
cpu0_DTLB TRANSLATION  ACCESS:          0 HIT:          0 MISS:          0
cpu0_DTLB PREFETCH REQUESTED:          0 ISSUED:          0 USEFUL:          0 USELESS:          0
cpu0_DTLB AVERAGE MISS LATENCY: 233 cycles
cpu0_ITLB TOTAL        ACCESS:       2013 HIT:       2013 MISS:          0
cpu0_ITLB LOAD         ACCESS:       2013 HIT:       2013 MISS:          0
cpu0_ITLB RFO          ACCESS:          0 HIT:          0 MISS:          0
cpu0_ITLB PREFETCH     ACCESS:          0 HIT:          0 MISS:          0
cpu0_ITLB WRITE        ACCESS:          0 HIT:          0 MISS:          0
cpu0_ITLB TRANSLATION  ACCESS:          0 HIT:          0 MISS:          0
cpu0_ITLB PREFETCH REQUESTED:          0 ISSUED:          0 USEFUL:          0 USELESS:          0
cpu0_ITLB AVERAGE MISS LATENCY: -nan cycles
cpu0_L1D TOTAL        ACCESS:   15689116 HIT:   13474421 MISS:    2214695
cpu0_L1D LOAD         ACCESS:    7123605 HIT:    6109819 MISS:    1013786
cpu0_L1D RFO          ACCESS:          0 HIT:          0 MISS:          0
cpu0_L1D PREFETCH     ACCESS:    5644759 HIT:    4800206 MISS:     844553
cpu0_L1D WRITE        ACCESS:    2522857 HIT:    2482650 MISS:      40207
cpu0_L1D TRANSLATION  ACCESS:     397895 HIT:      81746 MISS:     316149
cpu0_L1D PREFETCH REQUESTED:    7404776 ISSUED:    5644757 USEFUL:      48401 USELESS:     515483
cpu0_L1D AVERAGE MISS LATENCY: 172.3 cycles
cpu0_L1I TOTAL        ACCESS:       2013 HIT:       2013 MISS:          0
cpu0_L1I LOAD         ACCESS:       2013 HIT:       2013 MISS:          0
cpu0_L1I RFO          ACCESS:          0 HIT:          0 MISS:          0
cpu0_L1I PREFETCH     ACCESS:          0 HIT:          0 MISS:          0
cpu0_L1I WRITE        ACCESS:          0 HIT:          0 MISS:          0
cpu0_L1I TRANSLATION  ACCESS:          0 HIT:          0 MISS:          0
cpu0_L1I PREFETCH REQUESTED:          0 ISSUED:          0 USEFUL:          0 USELESS:          0
cpu0_L1I AVERAGE MISS LATENCY: -nan cycles
cpu0_L2C TOTAL        ACCESS:    2027138 HIT:     572097 MISS:    1455041
cpu0_L2C LOAD         ACCESS:     975985 HIT:     251831 MISS:     724154
cpu0_L2C RFO          ACCESS:      10701 HIT:       8835 MISS:       1866
cpu0_L2C PREFETCH     ACCESS:     643257 HIT:     146941 MISS:     496316
cpu0_L2C WRITE        ACCESS:      81380 HIT:      81167 MISS:        213
cpu0_L2C TRANSLATION  ACCESS:     315815 HIT:      83323 MISS:     232492
cpu0_L2C PREFETCH REQUESTED:      79283 ISSUED:      79283 USEFUL:      24229 USELESS:        311
cpu0_L2C AVERAGE MISS LATENCY: 253.2 cycles
cpu0_STLB TOTAL        ACCESS:     396868 HIT:     160091 MISS:     236777
cpu0_STLB LOAD         ACCESS:     396868 HIT:     160091 MISS:     236777
cpu0_STLB RFO          ACCESS:          0 HIT:          0 MISS:          0
cpu0_STLB PREFETCH     ACCESS:          0 HIT:          0 MISS:          0
cpu0_STLB WRITE        ACCESS:          0 HIT:          0 MISS:          0
cpu0_STLB TRANSLATION  ACCESS:          0 HIT:          0 MISS:          0
cpu0_STLB PREFETCH REQUESTED:          0 ISSUED:          0 USEFUL:          0 USELESS:          0
cpu0_STLB AVERAGE MISS LATENCY: 443.6 cycles

DRAM Statistics

Channel 0 RQ ROW_BUFFER_HIT:     177381
  ROW_BUFFER_MISS:     959686
 AVG DBUS CONGESTED CYCLE: 3.902
WQ ROW_BUFFER_HIT: Channel 0 
  ROW_BUFFER_MISS:      10449
  FULL:      34287
