WARNING: physical memory size is smaller than virtual memory size.

*** ChampSim Multicore Out-of-Order Simulator ***
Warmup Instructions: 25000000
Simulation Instructions: 25000000
Number of CPUs: 1
Page size: 4096

Off-chip DRAM Size: 4 GiB Channels: 1 Width: 64-bit Data Race: 800 MT/s
Heartbeat CPU 0 instructions: 10000001 cycles: 2704002 heartbeat IPC: 3.698 cumulative IPC: 3.698 (Simulation time: 00 hr 00 min 35 sec)
Heartbeat CPU 0 instructions: 20000001 cycles: 5407609 heartbeat IPC: 3.699 cumulative IPC: 3.698 (Simulation time: 00 hr 01 min 11 sec)
Warmup finished CPU 0 instructions: 25000003 cycles: 6759478 cumulative IPC: 3.699 (Simulation time: 00 hr 01 min 29 sec)
Warmup complete CPU 0 instructions: 25000003 cycles: 6759478 cumulative IPC: 3.699 (Simulation time: 00 hr 01 min 29 sec)
Heartbeat CPU 0 instructions: 30000003 cycles: 9035120 heartbeat IPC: 2.757 cumulative IPC: 2.197 (Simulation time: 00 hr 01 min 55 sec)
Heartbeat CPU 0 instructions: 40000002 cycles: 13486870 heartbeat IPC: 2.246 cumulative IPC: 2.23 (Simulation time: 00 hr 02 min 48 sec)
Heartbeat CPU 0 instructions: 50000000 cycles: 18270114 heartbeat IPC: 2.091 cumulative IPC: 2.172 (Simulation time: 00 hr 03 min 44 sec)
Simulation finished CPU 0 instructions: 25000001 cycles: 11510638 cumulative IPC: 2.172 (Simulation time: 00 hr 03 min 44 sec)
Simulation complete CPU 0 instructions: 25000001 cycles: 11510638 cumulative IPC: 2.172 (Simulation time: 00 hr 03 min 44 sec)

ChampSim completed all CPUs

=== Simulation ===
CPU 0 runs ./traces/607.cactuBSSN_s-3477B.champsimtrace.xz
Region of Interest Statistics

CPU 0 cumulative IPC: 2.172 instructions: 25000001 cycles: 11510638
CPU 0 Branch Prediction Accuracy: 91.83% MPKI: 0.7242 Average ROB Occupancy at Mispredict: 286.9
Branch type MPKI
BRANCH_DIRECT_JUMP: 0
BRANCH_INDIRECT: 4e-05
BRANCH_CONDITIONAL: 0.363
BRANCH_DIRECT_CALL: 0
BRANCH_INDIRECT_CALL: 0
BRANCH_RETURN: 0.362

LLC TOTAL        ACCESS:     267583 HIT:     195753 MISS:      71830
LLC LOAD         ACCESS:     123772 HIT:      92930 MISS:      30842
LLC RFO          ACCESS:      23188 HIT:       8563 MISS:      14625
LLC PREFETCH     ACCESS:      95350 HIT:      69984 MISS:      25366
LLC WRITE        ACCESS:      23563 HIT:      23537 MISS:         26
LLC TRANSLATION  ACCESS:       1710 HIT:        739 MISS:        971
LLC PREFETCH REQUESTED:          0 ISSUED:          0 USEFUL:          0 USELESS:          0
LLC AVERAGE MISS LATENCY: 844.1 cycles
cpu0_DTLB TOTAL        ACCESS:    6350351 HIT:    5244620 MISS:    1105731
cpu0_DTLB LOAD         ACCESS:    6350351 HIT:    5244620 MISS:    1105731
cpu0_DTLB RFO          ACCESS:          0 HIT:          0 MISS:          0
cpu0_DTLB PREFETCH     ACCESS:          0 HIT:          0 MISS:          0
cpu0_DTLB WRITE        ACCESS:          0 HIT:          0 MISS:          0
cpu0_DTLB TRANSLATION  ACCESS:          0 HIT:          0 MISS:          0
cpu0_DTLB PREFETCH REQUESTED:          0 ISSUED:          0 USEFUL:          0 USELESS:          0
cpu0_DTLB AVERAGE MISS LATENCY: 7.247 cycles
cpu0_ITLB TOTAL        ACCESS:    3015826 HIT:    3015826 MISS:          0
cpu0_ITLB LOAD         ACCESS:    3015826 HIT:    3015826 MISS:          0
cpu0_ITLB RFO          ACCESS:          0 HIT:          0 MISS:          0
cpu0_ITLB PREFETCH     ACCESS:          0 HIT:          0 MISS:          0
cpu0_ITLB WRITE        ACCESS:          0 HIT:          0 MISS:          0
cpu0_ITLB TRANSLATION  ACCESS:          0 HIT:          0 MISS:          0
cpu0_ITLB PREFETCH REQUESTED:          0 ISSUED:          0 USEFUL:          0 USELESS:          0
cpu0_ITLB AVERAGE MISS LATENCY: -nan cycles
cpu0_L1D TOTAL        ACCESS:    9392368 HIT:    7128894 MISS:    2263474
cpu0_L1D LOAD         ACCESS:    6333851 HIT:    4422730 MISS:    1911121
cpu0_L1D RFO          ACCESS:          0 HIT:          0 MISS:          0
cpu0_L1D PREFETCH     ACCESS:    1062609 HIT:     909332 MISS:     153277
cpu0_L1D WRITE        ACCESS:    1994138 HIT:    1796817 MISS:     197321
cpu0_L1D TRANSLATION  ACCESS:       1770 HIT:         15 MISS:       1755
cpu0_L1D PREFETCH REQUESTED:    7432976 ISSUED:    1062609 USEFUL:      15413 USELESS:     105018
cpu0_L1D AVERAGE MISS LATENCY: 36.58 cycles
cpu0_L1I TOTAL        ACCESS:    4165643 HIT:    2930191 MISS:    1235452
cpu0_L1I LOAD         ACCESS:    4165643 HIT:    2930191 MISS:    1235452
cpu0_L1I RFO          ACCESS:          0 HIT:          0 MISS:          0
cpu0_L1I PREFETCH     ACCESS:          0 HIT:          0 MISS:          0
cpu0_L1I WRITE        ACCESS:          0 HIT:          0 MISS:          0
cpu0_L1I TRANSLATION  ACCESS:          0 HIT:          0 MISS:          0
cpu0_L1I PREFETCH REQUESTED:          0 ISSUED:          0 USEFUL:          0 USELESS:          0
cpu0_L1I AVERAGE MISS LATENCY: 6.372 cycles
cpu0_L2C TOTAL        ACCESS:    3197592 HIT:    2953018 MISS:     244574
cpu0_L2C LOAD         ACCESS:    2530833 HIT:    2407057 MISS:     123776
cpu0_L2C RFO          ACCESS:     169698 HIT:     146281 MISS:      23417
cpu0_L2C PREFETCH     ACCESS:     302207 HIT:     206599 MISS:      95608
cpu0_L2C WRITE        ACCESS:     193101 HIT:     193038 MISS:         63
cpu0_L2C TRANSLATION  ACCESS:       1753 HIT:         43 MISS:       1710
cpu0_L2C PREFETCH REQUESTED:     208297 ISSUED:     181758 USEFUL:      46140 USELESS:        373
cpu0_L2C AVERAGE MISS LATENCY: 266 cycles
cpu0_STLB TOTAL        ACCESS:     949305 HIT:     948100 MISS:       1205
cpu0_STLB LOAD         ACCESS:     949305 HIT:     948100 MISS:       1205
cpu0_STLB RFO          ACCESS:          0 HIT:          0 MISS:          0
cpu0_STLB PREFETCH     ACCESS:          0 HIT:          0 MISS:          0
cpu0_STLB WRITE        ACCESS:          0 HIT:          0 MISS:          0
cpu0_STLB TRANSLATION  ACCESS:          0 HIT:          0 MISS:          0
cpu0_STLB PREFETCH REQUESTED:          0 ISSUED:          0 USEFUL:          0 USELESS:          0
cpu0_STLB AVERAGE MISS LATENCY: 972.2 cycles

DRAM Statistics

Channel 0 RQ ROW_BUFFER_HIT:      35569
  ROW_BUFFER_MISS:      36233
 AVG DBUS CONGESTED CYCLE: 3.872
WQ ROW_BUFFER_HIT: Channel 0 
  ROW_BUFFER_MISS:       1634
  FULL:      14217
