WARNING: physical memory size is smaller than virtual memory size.

*** ChampSim Multicore Out-of-Order Simulator ***
Warmup Instructions: 25000000
Simulation Instructions: 25000000
Number of CPUs: 1
Page size: 4096

Off-chip DRAM Size: 4 GiB Channels: 1 Width: 64-bit Data Race: 800 MT/s
Heartbeat CPU 0 instructions: 10000000 cycles: 2699720 heartbeat IPC: 3.704 cumulative IPC: 3.704 (Simulation time: 00 hr 00 min 35 sec)
Heartbeat CPU 0 instructions: 20000002 cycles: 5399950 heartbeat IPC: 3.703 cumulative IPC: 3.704 (Simulation time: 00 hr 01 min 11 sec)
Warmup finished CPU 0 instructions: 25000002 cycles: 6749999 cumulative IPC: 3.704 (Simulation time: 00 hr 01 min 29 sec)
Warmup complete CPU 0 instructions: 25000002 cycles: 6749999 cumulative IPC: 3.704 (Simulation time: 00 hr 01 min 29 sec)
Heartbeat CPU 0 instructions: 30000003 cycles: 8997133 heartbeat IPC: 2.78 cumulative IPC: 2.225 (Simulation time: 00 hr 01 min 57 sec)
Heartbeat CPU 0 instructions: 40000003 cycles: 13488633 heartbeat IPC: 2.226 cumulative IPC: 2.226 (Simulation time: 00 hr 02 min 49 sec)
Heartbeat CPU 0 instructions: 50000001 cycles: 17968212 heartbeat IPC: 2.232 cumulative IPC: 2.229 (Simulation time: 00 hr 03 min 41 sec)
Simulation finished CPU 0 instructions: 25000003 cycles: 11218215 cumulative IPC: 2.229 (Simulation time: 00 hr 03 min 41 sec)
Simulation complete CPU 0 instructions: 25000003 cycles: 11218215 cumulative IPC: 2.229 (Simulation time: 00 hr 03 min 41 sec)

ChampSim completed all CPUs

=== Simulation ===
CPU 0 runs ./traces/607.cactuBSSN_s-4004B.champsimtrace.xz
Region of Interest Statistics

CPU 0 cumulative IPC: 2.229 instructions: 25000003 cycles: 11218215
CPU 0 Branch Prediction Accuracy: 91.83% MPKI: 0.728 Average ROB Occupancy at Mispredict: 296
Branch type MPKI
BRANCH_DIRECT_JUMP: 0
BRANCH_INDIRECT: 0
BRANCH_CONDITIONAL: 0.365
BRANCH_DIRECT_CALL: 0
BRANCH_INDIRECT_CALL: 0
BRANCH_RETURN: 0.363

LLC TOTAL        ACCESS:     262503 HIT:     196063 MISS:      66440
LLC LOAD         ACCESS:     124210 HIT:      95406 MISS:      28804
LLC RFO          ACCESS:      22056 HIT:       7356 MISS:      14700
LLC PREFETCH     ACCESS:      92238 HIT:      70093 MISS:      22145
LLC WRITE        ACCESS:      22515 HIT:      22470 MISS:         45
LLC TRANSLATION  ACCESS:       1484 HIT:        738 MISS:        746
LLC PREFETCH REQUESTED:          0 ISSUED:          0 USEFUL:          0 USELESS:          0
LLC AVERAGE MISS LATENCY: 836.9 cycles
cpu0_DTLB TOTAL        ACCESS:    6200189 HIT:    5056487 MISS:    1143702
cpu0_DTLB LOAD         ACCESS:    6200189 HIT:    5056487 MISS:    1143702
cpu0_DTLB RFO          ACCESS:          0 HIT:          0 MISS:          0
cpu0_DTLB PREFETCH     ACCESS:          0 HIT:          0 MISS:          0
cpu0_DTLB WRITE        ACCESS:          0 HIT:          0 MISS:          0
cpu0_DTLB TRANSLATION  ACCESS:          0 HIT:          0 MISS:          0
cpu0_DTLB PREFETCH REQUESTED:          0 ISSUED:          0 USEFUL:          0 USELESS:          0
cpu0_DTLB AVERAGE MISS LATENCY: 6.832 cycles
cpu0_ITLB TOTAL        ACCESS:    3004184 HIT:    3004184 MISS:          0
cpu0_ITLB LOAD         ACCESS:    3004184 HIT:    3004184 MISS:          0
cpu0_ITLB RFO          ACCESS:          0 HIT:          0 MISS:          0
cpu0_ITLB PREFETCH     ACCESS:          0 HIT:          0 MISS:          0
cpu0_ITLB WRITE        ACCESS:          0 HIT:          0 MISS:          0
cpu0_ITLB TRANSLATION  ACCESS:          0 HIT:          0 MISS:          0
cpu0_ITLB PREFETCH REQUESTED:          0 ISSUED:          0 USEFUL:          0 USELESS:          0
cpu0_ITLB AVERAGE MISS LATENCY: -nan cycles
cpu0_L1D TOTAL        ACCESS:    9328669 HIT:    7046587 MISS:    2282082
cpu0_L1D LOAD         ACCESS:    6322117 HIT:    4385613 MISS:    1936504
cpu0_L1D RFO          ACCESS:          0 HIT:          0 MISS:          0
cpu0_L1D PREFETCH     ACCESS:     987793 HIT:     835491 MISS:     152302
cpu0_L1D WRITE        ACCESS:    2017228 HIT:    1825468 MISS:     191760
cpu0_L1D TRANSLATION  ACCESS:       1531 HIT:         15 MISS:       1516
cpu0_L1D PREFETCH REQUESTED:    7288004 ISSUED:     987792 USEFUL:      15987 USELESS:     102143
cpu0_L1D AVERAGE MISS LATENCY: 34.6 cycles
cpu0_L1I TOTAL        ACCESS:    4126779 HIT:    3038843 MISS:    1087936
cpu0_L1I LOAD         ACCESS:    4126779 HIT:    3038843 MISS:    1087936
cpu0_L1I RFO          ACCESS:          0 HIT:          0 MISS:          0
cpu0_L1I PREFETCH     ACCESS:          0 HIT:          0 MISS:          0
cpu0_L1I WRITE        ACCESS:          0 HIT:          0 MISS:          0
cpu0_L1I TRANSLATION  ACCESS:          0 HIT:          0 MISS:          0
cpu0_L1I PREFETCH REQUESTED:          0 ISSUED:          0 USEFUL:          0 USELESS:          0
cpu0_L1I AVERAGE MISS LATENCY: 6.569 cycles
cpu0_L2C TOTAL        ACCESS:    3138620 HIT:    2898048 MISS:     240572
cpu0_L2C LOAD         ACCESS:    2476619 HIT:    2352406 MISS:     124213
cpu0_L2C RFO          ACCESS:     167398 HIT:     145113 MISS:      22285
cpu0_L2C PREFETCH     ACCESS:     299468 HIT:     206972 MISS:      92496
cpu0_L2C WRITE        ACCESS:     193619 HIT:     193525 MISS:         94
cpu0_L2C TRANSLATION  ACCESS:       1516 HIT:         32 MISS:       1484
cpu0_L2C PREFETCH REQUESTED:     208653 ISSUED:     181320 USEFUL:      45693 USELESS:        249
cpu0_L2C AVERAGE MISS LATENCY: 251.1 cycles
cpu0_STLB TOTAL        ACCESS:     969650 HIT:     968632 MISS:       1018
cpu0_STLB LOAD         ACCESS:     969650 HIT:     968632 MISS:       1018
cpu0_STLB RFO          ACCESS:          0 HIT:          0 MISS:          0
cpu0_STLB PREFETCH     ACCESS:          0 HIT:          0 MISS:          0
cpu0_STLB WRITE        ACCESS:          0 HIT:          0 MISS:          0
cpu0_STLB TRANSLATION  ACCESS:          0 HIT:          0 MISS:          0
cpu0_STLB PREFETCH REQUESTED:          0 ISSUED:          0 USEFUL:          0 USELESS:          0
cpu0_STLB AVERAGE MISS LATENCY: 782.5 cycles

DRAM Statistics

Channel 0 RQ ROW_BUFFER_HIT:      33190
  ROW_BUFFER_MISS:      33204
 AVG DBUS CONGESTED CYCLE: 3.86
WQ ROW_BUFFER_HIT: Channel 0 
  ROW_BUFFER_MISS:       1298
  FULL:      13669
