WARNING: physical memory size is smaller than virtual memory size.

*** ChampSim Multicore Out-of-Order Simulator ***
Warmup Instructions: 25000000
Simulation Instructions: 25000000
Number of CPUs: 1
Page size: 4096

Off-chip DRAM Size: 4 GiB Channels: 1 Width: 64-bit Data Race: 800 MT/s
Heartbeat CPU 0 instructions: 10000002 cycles: 2699926 heartbeat IPC: 3.704 cumulative IPC: 3.704 (Simulation time: 00 hr 00 min 40 sec)
Heartbeat CPU 0 instructions: 20000001 cycles: 5397191 heartbeat IPC: 3.707 cumulative IPC: 3.706 (Simulation time: 00 hr 01 min 23 sec)
Warmup finished CPU 0 instructions: 25000000 cycles: 6746447 cumulative IPC: 3.706 (Simulation time: 00 hr 01 min 43 sec)
Warmup complete CPU 0 instructions: 25000000 cycles: 6746447 cumulative IPC: 3.706 (Simulation time: 00 hr 01 min 43 sec)
Heartbeat CPU 0 instructions: 30000000 cycles: 8954130 heartbeat IPC: 2.811 cumulative IPC: 2.265 (Simulation time: 00 hr 02 min 12 sec)
Heartbeat CPU 0 instructions: 40000003 cycles: 13386234 heartbeat IPC: 2.256 cumulative IPC: 2.259 (Simulation time: 00 hr 03 min 11 sec)
Heartbeat CPU 0 instructions: 50000000 cycles: 17848809 heartbeat IPC: 2.241 cumulative IPC: 2.252 (Simulation time: 00 hr 04 min 09 sec)
Simulation finished CPU 0 instructions: 25000000 cycles: 11102363 cumulative IPC: 2.252 (Simulation time: 00 hr 04 min 09 sec)
Simulation complete CPU 0 instructions: 25000000 cycles: 11102363 cumulative IPC: 2.252 (Simulation time: 00 hr 04 min 09 sec)

ChampSim completed all CPUs

=== Simulation ===
CPU 0 runs ./traces/607.cactuBSSN_s-2421B.champsimtrace.xz
Region of Interest Statistics

CPU 0 cumulative IPC: 2.252 instructions: 25000000 cycles: 11102363
CPU 0 Branch Prediction Accuracy: 91.83% MPKI: 0.728 Average ROB Occupancy at Mispredict: 300.6
Branch type MPKI
BRANCH_DIRECT_JUMP: 0
BRANCH_INDIRECT: 0
BRANCH_CONDITIONAL: 0.365
BRANCH_DIRECT_CALL: 0
BRANCH_INDIRECT_CALL: 0
BRANCH_RETURN: 0.363

LLC TOTAL        ACCESS:     250292 HIT:     183731 MISS:      66561
LLC LOAD         ACCESS:     113100 HIT:      84051 MISS:      29049
LLC RFO          ACCESS:      20536 HIT:       5811 MISS:      14725
LLC PREFETCH     ACCESS:      94283 HIT:      72312 MISS:      21971
LLC WRITE        ACCESS:      20881 HIT:      20821 MISS:         60
LLC TRANSLATION  ACCESS:       1492 HIT:        736 MISS:        756
LLC PREFETCH REQUESTED:          0 ISSUED:          0 USEFUL:          0 USELESS:          0
LLC AVERAGE MISS LATENCY: 810.1 cycles
cpu0_DTLB TOTAL        ACCESS:    6168217 HIT:    5031957 MISS:    1136260
cpu0_DTLB LOAD         ACCESS:    6168217 HIT:    5031957 MISS:    1136260
cpu0_DTLB RFO          ACCESS:          0 HIT:          0 MISS:          0
cpu0_DTLB PREFETCH     ACCESS:          0 HIT:          0 MISS:          0
cpu0_DTLB WRITE        ACCESS:          0 HIT:          0 MISS:          0
cpu0_DTLB TRANSLATION  ACCESS:          0 HIT:          0 MISS:          0
cpu0_DTLB PREFETCH REQUESTED:          0 ISSUED:          0 USEFUL:          0 USELESS:          0
cpu0_DTLB AVERAGE MISS LATENCY: 6.824 cycles
cpu0_ITLB TOTAL        ACCESS:    2995635 HIT:    2995635 MISS:          0
cpu0_ITLB LOAD         ACCESS:    2995635 HIT:    2995635 MISS:          0
cpu0_ITLB RFO          ACCESS:          0 HIT:          0 MISS:          0
cpu0_ITLB PREFETCH     ACCESS:          0 HIT:          0 MISS:          0
cpu0_ITLB WRITE        ACCESS:          0 HIT:          0 MISS:          0
cpu0_ITLB TRANSLATION  ACCESS:          0 HIT:          0 MISS:          0
cpu0_ITLB PREFETCH REQUESTED:          0 ISSUED:          0 USEFUL:          0 USELESS:          0
cpu0_ITLB AVERAGE MISS LATENCY: -nan cycles
cpu0_L1D TOTAL        ACCESS:    9285684 HIT:    7003611 MISS:    2282073
cpu0_L1D LOAD         ACCESS:    6295057 HIT:    4364252 MISS:    1930805
cpu0_L1D RFO          ACCESS:          0 HIT:          0 MISS:          0
cpu0_L1D PREFETCH     ACCESS:     971483 HIT:     824339 MISS:     147144
cpu0_L1D WRITE        ACCESS:    2017601 HIT:    1814991 MISS:     202610
cpu0_L1D TRANSLATION  ACCESS:       1543 HIT:         29 MISS:       1514
cpu0_L1D PREFETCH REQUESTED:    7236381 ISSUED:     971492 USEFUL:      14494 USELESS:     101012
cpu0_L1D AVERAGE MISS LATENCY: 33.91 cycles
cpu0_L1I TOTAL        ACCESS:    4123255 HIT:    3036791 MISS:    1086464
cpu0_L1I LOAD         ACCESS:    4123255 HIT:    3036791 MISS:    1086464
cpu0_L1I RFO          ACCESS:          0 HIT:          0 MISS:          0
cpu0_L1I PREFETCH     ACCESS:          0 HIT:          0 MISS:          0
cpu0_L1I WRITE        ACCESS:          0 HIT:          0 MISS:          0
cpu0_L1I TRANSLATION  ACCESS:          0 HIT:          0 MISS:          0
cpu0_L1I PREFETCH REQUESTED:          0 ISSUED:          0 USEFUL:          0 USELESS:          0
cpu0_L1I AVERAGE MISS LATENCY: 6.548 cycles
cpu0_L2C TOTAL        ACCESS:    3131192 HIT:    2901262 MISS:     229930
cpu0_L2C LOAD         ACCESS:    2471684 HIT:    2358581 MISS:     113103
cpu0_L2C RFO          ACCESS:     167805 HIT:     147036 MISS:      20769
cpu0_L2C PREFETCH     ACCESS:     297753 HIT:     203230 MISS:      94523
cpu0_L2C WRITE        ACCESS:     192436 HIT:     192393 MISS:         43
cpu0_L2C TRANSLATION  ACCESS:       1514 HIT:         22 MISS:       1492
cpu0_L2C PREFETCH REQUESTED:     216687 ISSUED:     182230 USEFUL:      47497 USELESS:         76
cpu0_L2C AVERAGE MISS LATENCY: 254.6 cycles
cpu0_STLB TOTAL        ACCESS:     962031 HIT:     961013 MISS:       1018
cpu0_STLB LOAD         ACCESS:     962031 HIT:     961013 MISS:       1018
cpu0_STLB RFO          ACCESS:          0 HIT:          0 MISS:          0
cpu0_STLB PREFETCH     ACCESS:          0 HIT:          0 MISS:          0
cpu0_STLB WRITE        ACCESS:          0 HIT:          0 MISS:          0
cpu0_STLB TRANSLATION  ACCESS:          0 HIT:          0 MISS:          0
cpu0_STLB PREFETCH REQUESTED:          0 ISSUED:          0 USEFUL:          0 USELESS:          0
cpu0_STLB AVERAGE MISS LATENCY: 793.8 cycles

DRAM Statistics

Channel 0 RQ ROW_BUFFER_HIT:      34681
  ROW_BUFFER_MISS:      31811
 AVG DBUS CONGESTED CYCLE: 3.859
WQ ROW_BUFFER_HIT: Channel 0 
  ROW_BUFFER_MISS:       1653
  FULL:      13936
