WARNING: physical memory size is smaller than virtual memory size.

*** ChampSim Multicore Out-of-Order Simulator ***
Warmup Instructions: 25000000
Simulation Instructions: 25000000
Number of CPUs: 1
Page size: 4096

Off-chip DRAM Size: 4 GiB Channels: 1 Width: 64-bit Data Race: 800 MT/s
Heartbeat CPU 0 instructions: 10000003 cycles: 2500085 heartbeat IPC: 4 cumulative IPC: 4 (Simulation time: 00 hr 00 min 27 sec)
Heartbeat CPU 0 instructions: 20000002 cycles: 5008076 heartbeat IPC: 3.987 cumulative IPC: 3.994 (Simulation time: 00 hr 00 min 55 sec)
Warmup finished CPU 0 instructions: 25000002 cycles: 6258077 cumulative IPC: 3.995 (Simulation time: 00 hr 01 min 09 sec)
Warmup complete CPU 0 instructions: 25000002 cycles: 6258077 cumulative IPC: 3.995 (Simulation time: 00 hr 01 min 09 sec)
Heartbeat CPU 0 instructions: 30000002 cycles: 21087310 heartbeat IPC: 0.6219 cumulative IPC: 0.3372 (Simulation time: 00 hr 02 min 41 sec)
Heartbeat CPU 0 instructions: 40000000 cycles: 52127043 heartbeat IPC: 0.3222 cumulative IPC: 0.327 (Simulation time: 00 hr 05 min 53 sec)
Heartbeat CPU 0 instructions: 50000002 cycles: 83411242 heartbeat IPC: 0.3197 cumulative IPC: 0.324 (Simulation time: 00 hr 09 min 08 sec)
Simulation finished CPU 0 instructions: 25000000 cycles: 77153166 cumulative IPC: 0.324 (Simulation time: 00 hr 09 min 08 sec)
Simulation complete CPU 0 instructions: 25000000 cycles: 77153166 cumulative IPC: 0.324 (Simulation time: 00 hr 09 min 08 sec)

ChampSim completed all CPUs

=== Simulation ===
CPU 0 runs ./traces/619.lbm_s-3766B.champsimtrace.xz
Region of Interest Statistics

CPU 0 cumulative IPC: 0.324 instructions: 25000000 cycles: 77153166
CPU 0 Branch Prediction Accuracy: 99.7% MPKI: 0.03212 Average ROB Occupancy at Mispredict: 259.2
Branch type MPKI
BRANCH_DIRECT_JUMP: 0
BRANCH_INDIRECT: 0
BRANCH_CONDITIONAL: 0.0321
BRANCH_DIRECT_CALL: 0
BRANCH_INDIRECT_CALL: 0
BRANCH_RETURN: 0

LLC TOTAL        ACCESS:    1385916 HIT:     842682 MISS:     543234
LLC LOAD         ACCESS:      62931 HIT:        385 MISS:      62546
LLC RFO          ACCESS:     622998 HIT:     217473 MISS:     405525
LLC PREFETCH     ACCESS:      75339 HIT:        529 MISS:      74810
LLC WRITE        ACCESS:     624208 HIT:     623921 MISS:        287
LLC TRANSLATION  ACCESS:        440 HIT:        374 MISS:         66
LLC PREFETCH REQUESTED:          0 ISSUED:          0 USEFUL:          0 USELESS:          0
LLC AVERAGE MISS LATENCY: 1760 cycles
cpu0_DTLB TOTAL        ACCESS:    4265752 HIT:    4242339 MISS:      23413
cpu0_DTLB LOAD         ACCESS:    4265752 HIT:    4242339 MISS:      23413
cpu0_DTLB RFO          ACCESS:          0 HIT:          0 MISS:          0
cpu0_DTLB PREFETCH     ACCESS:          0 HIT:          0 MISS:          0
cpu0_DTLB WRITE        ACCESS:          0 HIT:          0 MISS:          0
cpu0_DTLB TRANSLATION  ACCESS:          0 HIT:          0 MISS:          0
cpu0_DTLB PREFETCH REQUESTED:          0 ISSUED:          0 USEFUL:          0 USELESS:          0
cpu0_DTLB AVERAGE MISS LATENCY: 75.52 cycles
cpu0_ITLB TOTAL        ACCESS:          0 HIT:          0 MISS:          0
cpu0_ITLB LOAD         ACCESS:          0 HIT:          0 MISS:          0
cpu0_ITLB RFO          ACCESS:          0 HIT:          0 MISS:          0
cpu0_ITLB PREFETCH     ACCESS:          0 HIT:          0 MISS:          0
cpu0_ITLB WRITE        ACCESS:          0 HIT:          0 MISS:          0
cpu0_ITLB TRANSLATION  ACCESS:          0 HIT:          0 MISS:          0
cpu0_ITLB PREFETCH REQUESTED:          0 ISSUED:          0 USEFUL:          0 USELESS:          0
cpu0_ITLB AVERAGE MISS LATENCY: -nan cycles
cpu0_L1D TOTAL        ACCESS:    7154493 HIT:    5375573 MISS:    1778920
cpu0_L1D LOAD         ACCESS:    1709978 HIT:    1365999 MISS:     343979
cpu0_L1D RFO          ACCESS:          0 HIT:          0 MISS:          0
cpu0_L1D PREFETCH     ACCESS:    1713874 HIT:    1093231 MISS:     620643
cpu0_L1D WRITE        ACCESS:    3722165 HIT:    2916339 MISS:     805826
cpu0_L1D TRANSLATION  ACCESS:       8476 HIT:          4 MISS:       8472
cpu0_L1D PREFETCH REQUESTED:    2215575 ISSUED:    1713876 USEFUL:      52593 USELESS:       1272
cpu0_L1D AVERAGE MISS LATENCY: 497 cycles
cpu0_L1I TOTAL        ACCESS:          0 HIT:          0 MISS:          0
cpu0_L1I LOAD         ACCESS:          0 HIT:          0 MISS:          0
cpu0_L1I RFO          ACCESS:          0 HIT:          0 MISS:          0
cpu0_L1I PREFETCH     ACCESS:          0 HIT:          0 MISS:          0
cpu0_L1I WRITE        ACCESS:          0 HIT:          0 MISS:          0
cpu0_L1I TRANSLATION  ACCESS:          0 HIT:          0 MISS:          0
cpu0_L1I PREFETCH REQUESTED:          0 ISSUED:          0 USEFUL:          0 USELESS:          0
cpu0_L1I AVERAGE MISS LATENCY: -nan cycles
cpu0_L2C TOTAL        ACCESS:    1737560 HIT:     975426 MISS:     762134
cpu0_L2C LOAD         ACCESS:      82845 HIT:      19884 MISS:      62961
cpu0_L2C RFO          ACCESS:     768700 HIT:     145700 MISS:     623000
cpu0_L2C PREFETCH     ACCESS:     108855 HIT:      33122 MISS:      75733
cpu0_L2C WRITE        ACCESS:     768688 HIT:     768688 MISS:          0
cpu0_L2C TRANSLATION  ACCESS:       8472 HIT:       8032 MISS:        440
cpu0_L2C PREFETCH REQUESTED:      54991 ISSUED:      54991 USEFUL:      20154 USELESS:        174
cpu0_L2C AVERAGE MISS LATENCY: 1272 cycles
cpu0_STLB TOTAL        ACCESS:      15602 HIT:       7134 MISS:       8468
cpu0_STLB LOAD         ACCESS:      15602 HIT:       7134 MISS:       8468
cpu0_STLB RFO          ACCESS:          0 HIT:          0 MISS:          0
cpu0_STLB PREFETCH     ACCESS:          0 HIT:          0 MISS:          0
cpu0_STLB WRITE        ACCESS:          0 HIT:          0 MISS:          0
cpu0_STLB TRANSLATION  ACCESS:          0 HIT:          0 MISS:          0
cpu0_STLB PREFETCH REQUESTED:          0 ISSUED:          0 USEFUL:          0 USELESS:          0
cpu0_STLB AVERAGE MISS LATENCY: 216.7 cycles

DRAM Statistics

Channel 0 RQ ROW_BUFFER_HIT:      42950
  ROW_BUFFER_MISS:     499748
 AVG DBUS CONGESTED CYCLE: 3.988
WQ ROW_BUFFER_HIT: Channel 0 
  ROW_BUFFER_MISS:       6596
  FULL:     403460
