WARNING: physical memory size is smaller than virtual memory size.

*** ChampSim Multicore Out-of-Order Simulator ***
Warmup Instructions: 25000000
Simulation Instructions: 25000000
Number of CPUs: 1
Page size: 4096

Off-chip DRAM Size: 4 GiB Channels: 1 Width: 64-bit Data Race: 800 MT/s
Heartbeat CPU 0 instructions: 10000001 cycles: 2956958 heartbeat IPC: 3.382 cumulative IPC: 3.382 (Simulation time: 00 hr 00 min 37 sec)
Heartbeat CPU 0 instructions: 20000003 cycles: 5912559 heartbeat IPC: 3.383 cumulative IPC: 3.383 (Simulation time: 00 hr 01 min 16 sec)
Warmup finished CPU 0 instructions: 25000003 cycles: 7390546 cumulative IPC: 3.383 (Simulation time: 00 hr 01 min 35 sec)
Warmup complete CPU 0 instructions: 25000003 cycles: 7390546 cumulative IPC: 3.383 (Simulation time: 00 hr 01 min 35 sec)
Heartbeat CPU 0 instructions: 30000001 cycles: 40646882 heartbeat IPC: 0.2879 cumulative IPC: 0.1503 (Simulation time: 00 hr 05 min 07 sec)
Heartbeat CPU 0 instructions: 40000002 cycles: 109539934 heartbeat IPC: 0.1452 cumulative IPC: 0.1468 (Simulation time: 00 hr 11 min 50 sec)
Heartbeat CPU 0 instructions: 50000002 cycles: 177634539 heartbeat IPC: 0.1469 cumulative IPC: 0.1468 (Simulation time: 00 hr 17 min 51 sec)
Simulation finished CPU 0 instructions: 25000003 cycles: 170243995 cumulative IPC: 0.1468 (Simulation time: 00 hr 17 min 51 sec)
Simulation complete CPU 0 instructions: 25000003 cycles: 170243995 cumulative IPC: 0.1468 (Simulation time: 00 hr 17 min 51 sec)

ChampSim completed all CPUs

=== Simulation ===
CPU 0 runs ./traces/619.lbm_s-4268B.champsimtrace.xz
Region of Interest Statistics

CPU 0 cumulative IPC: 0.1468 instructions: 25000003 cycles: 170243995
CPU 0 Branch Prediction Accuracy: 95.11% MPKI: 0.871 Average ROB Occupancy at Mispredict: 294.7
Branch type MPKI
BRANCH_DIRECT_JUMP: 0
BRANCH_INDIRECT: 0
BRANCH_CONDITIONAL: 0.871
BRANCH_DIRECT_CALL: 0
BRANCH_INDIRECT_CALL: 0
BRANCH_RETURN: 0

LLC TOTAL        ACCESS:    3426911 HIT:    2235815 MISS:    1191096
LLC LOAD         ACCESS:     206056 HIT:      13136 MISS:     192920
LLC RFO          ACCESS:    1545033 HIT:     664755 MISS:     880278
LLC PREFETCH     ACCESS:     129574 HIT:      12161 MISS:     117413
LLC WRITE        ACCESS:    1545709 HIT:    1545411 MISS:        298
LLC TRANSLATION  ACCESS:        539 HIT:        352 MISS:        187
LLC PREFETCH REQUESTED:          0 ISSUED:          0 USEFUL:          0 USELESS:          0
LLC AVERAGE MISS LATENCY: 2014 cycles
cpu0_DTLB TOTAL        ACCESS:    5134435 HIT:    5079149 MISS:      55286
cpu0_DTLB LOAD         ACCESS:    5134435 HIT:    5079149 MISS:      55286
cpu0_DTLB RFO          ACCESS:          0 HIT:          0 MISS:          0
cpu0_DTLB PREFETCH     ACCESS:          0 HIT:          0 MISS:          0
cpu0_DTLB WRITE        ACCESS:          0 HIT:          0 MISS:          0
cpu0_DTLB TRANSLATION  ACCESS:          0 HIT:          0 MISS:          0
cpu0_DTLB PREFETCH REQUESTED:          0 ISSUED:          0 USEFUL:          0 USELESS:          0
cpu0_DTLB AVERAGE MISS LATENCY: 123.4 cycles
cpu0_ITLB TOTAL        ACCESS:          0 HIT:          0 MISS:          0
cpu0_ITLB LOAD         ACCESS:          0 HIT:          0 MISS:          0
cpu0_ITLB RFO          ACCESS:          0 HIT:          0 MISS:          0
cpu0_ITLB PREFETCH     ACCESS:          0 HIT:          0 MISS:          0
cpu0_ITLB WRITE        ACCESS:          0 HIT:          0 MISS:          0
cpu0_ITLB TRANSLATION  ACCESS:          0 HIT:          0 MISS:          0
cpu0_ITLB PREFETCH REQUESTED:          0 ISSUED:          0 USEFUL:          0 USELESS:          0
cpu0_ITLB AVERAGE MISS LATENCY: -nan cycles
cpu0_L1D TOTAL        ACCESS:    8032780 HIT:    4909625 MISS:    3123155
cpu0_L1D LOAD         ACCESS:    1725857 HIT:    1159718 MISS:     566139
cpu0_L1D RFO          ACCESS:          0 HIT:          0 MISS:          0
cpu0_L1D PREFETCH     ACCESS:    1726666 HIT:     963820 MISS:     762846
cpu0_L1D WRITE        ACCESS:    4561835 HIT:    2786069 MISS:    1775766
cpu0_L1D TRANSLATION  ACCESS:      18422 HIT:         18 MISS:      18404
cpu0_L1D PREFETCH REQUESTED:   17011391 ISSUED:    1726668 USEFUL:      72419 USELESS:       2621
cpu0_L1D AVERAGE MISS LATENCY: 700.5 cycles
cpu0_L1I TOTAL        ACCESS:          0 HIT:          0 MISS:          0
cpu0_L1I LOAD         ACCESS:          0 HIT:          0 MISS:          0
cpu0_L1I RFO          ACCESS:          0 HIT:          0 MISS:          0
cpu0_L1I PREFETCH     ACCESS:          0 HIT:          0 MISS:          0
cpu0_L1I WRITE        ACCESS:          0 HIT:          0 MISS:          0
cpu0_L1I TRANSLATION  ACCESS:          0 HIT:          0 MISS:          0
cpu0_L1I PREFETCH REQUESTED:          0 ISSUED:          0 USEFUL:          0 USELESS:          0
cpu0_L1I AVERAGE MISS LATENCY: -nan cycles
cpu0_L2C TOTAL        ACCESS:    3725233 HIT:    1840471 MISS:    1884762
cpu0_L2C LOAD         ACCESS:     222393 HIT:      15450 MISS:     206943
cpu0_L2C RFO          ACCESS:    1669758 HIT:     124727 MISS:    1545031
cpu0_L2C PREFETCH     ACCESS:     144901 HIT:      12652 MISS:     132249
cpu0_L2C WRITE        ACCESS:    1669777 HIT:    1669777 MISS:          0
cpu0_L2C TRANSLATION  ACCESS:      18404 HIT:      17865 MISS:        539
cpu0_L2C PREFETCH REQUESTED:      69861 ISSUED:      69861 USEFUL:      16500 USELESS:        453
cpu0_L2C AVERAGE MISS LATENCY: 1262 cycles
cpu0_STLB TOTAL        ACCESS:      33922 HIT:      15518 MISS:      18404
cpu0_STLB LOAD         ACCESS:      33922 HIT:      15518 MISS:      18404
cpu0_STLB RFO          ACCESS:          0 HIT:          0 MISS:          0
cpu0_STLB PREFETCH     ACCESS:          0 HIT:          0 MISS:          0
cpu0_STLB WRITE        ACCESS:          0 HIT:          0 MISS:          0
cpu0_STLB TRANSLATION  ACCESS:          0 HIT:          0 MISS:          0
cpu0_STLB PREFETCH REQUESTED:          0 ISSUED:          0 USEFUL:          0 USELESS:          0
cpu0_STLB AVERAGE MISS LATENCY: 441.7 cycles

DRAM Statistics

Channel 0 RQ ROW_BUFFER_HIT:      87408
  ROW_BUFFER_MISS:    1090415
 AVG DBUS CONGESTED CYCLE: 3.984
WQ ROW_BUFFER_HIT: Channel 0 
  ROW_BUFFER_MISS:      18805
  FULL:     864462
