WARNING: physical memory size is smaller than virtual memory size.

*** ChampSim Multicore Out-of-Order Simulator ***
Warmup Instructions: 25000000
Simulation Instructions: 25000000
Number of CPUs: 1
Page size: 4096

Off-chip DRAM Size: 4 GiB Channels: 1 Width: 64-bit Data Race: 800 MT/s
Heartbeat CPU 0 instructions: 10000000 cycles: 2963453 heartbeat IPC: 3.374 cumulative IPC: 3.374 (Simulation time: 00 hr 00 min 33 sec)
Heartbeat CPU 0 instructions: 20000000 cycles: 5907545 heartbeat IPC: 3.397 cumulative IPC: 3.386 (Simulation time: 00 hr 01 min 06 sec)
Warmup finished CPU 0 instructions: 25000003 cycles: 7392669 cumulative IPC: 3.382 (Simulation time: 00 hr 01 min 23 sec)
Warmup complete CPU 0 instructions: 25000003 cycles: 7392669 cumulative IPC: 3.382 (Simulation time: 00 hr 01 min 23 sec)
Heartbeat CPU 0 instructions: 30000001 cycles: 41245662 heartbeat IPC: 0.283 cumulative IPC: 0.1477 (Simulation time: 00 hr 04 min 32 sec)
Heartbeat CPU 0 instructions: 40000002 cycles: 108877376 heartbeat IPC: 0.1479 cumulative IPC: 0.1478 (Simulation time: 00 hr 09 min 27 sec)
Heartbeat CPU 0 instructions: 50000001 cycles: 178822111 heartbeat IPC: 0.143 cumulative IPC: 0.1458 (Simulation time: 00 hr 13 min 04 sec)
Simulation finished CPU 0 instructions: 25000002 cycles: 171429444 cumulative IPC: 0.1458 (Simulation time: 00 hr 13 min 04 sec)
Simulation complete CPU 0 instructions: 25000002 cycles: 171429444 cumulative IPC: 0.1458 (Simulation time: 00 hr 13 min 04 sec)

ChampSim completed all CPUs

=== Simulation ===
CPU 0 runs ./traces/619.lbm_s-2677B.champsimtrace.xz
Region of Interest Statistics

CPU 0 cumulative IPC: 0.1458 instructions: 25000002 cycles: 171429444
CPU 0 Branch Prediction Accuracy: 95.14% MPKI: 0.8683 Average ROB Occupancy at Mispredict: 293.8
Branch type MPKI
BRANCH_DIRECT_JUMP: 0
BRANCH_INDIRECT: 0
BRANCH_CONDITIONAL: 0.868
BRANCH_DIRECT_CALL: 0
BRANCH_INDIRECT_CALL: 0
BRANCH_RETURN: 0

LLC TOTAL        ACCESS:    3444694 HIT:    2248102 MISS:    1196592
LLC LOAD         ACCESS:     206762 HIT:      13717 MISS:     193045
LLC RFO          ACCESS:    1552452 HIT:     668720 MISS:     883732
LLC PREFETCH     ACCESS:     131232 HIT:      12529 MISS:     118703
LLC WRITE        ACCESS:    1553702 HIT:    1552769 MISS:        933
LLC TRANSLATION  ACCESS:        546 HIT:        367 MISS:        179
LLC PREFETCH REQUESTED:          0 ISSUED:          0 USEFUL:          0 USELESS:          0
LLC AVERAGE MISS LATENCY: 2025 cycles
cpu0_DTLB TOTAL        ACCESS:    5141140 HIT:    5085334 MISS:      55806
cpu0_DTLB LOAD         ACCESS:    5141140 HIT:    5085334 MISS:      55806
cpu0_DTLB RFO          ACCESS:          0 HIT:          0 MISS:          0
cpu0_DTLB PREFETCH     ACCESS:          0 HIT:          0 MISS:          0
cpu0_DTLB WRITE        ACCESS:          0 HIT:          0 MISS:          0
cpu0_DTLB TRANSLATION  ACCESS:          0 HIT:          0 MISS:          0
cpu0_DTLB PREFETCH REQUESTED:          0 ISSUED:          0 USEFUL:          0 USELESS:          0
cpu0_DTLB AVERAGE MISS LATENCY: 122.5 cycles
cpu0_ITLB TOTAL        ACCESS:          0 HIT:          0 MISS:          0
cpu0_ITLB LOAD         ACCESS:          0 HIT:          0 MISS:          0
cpu0_ITLB RFO          ACCESS:          0 HIT:          0 MISS:          0
cpu0_ITLB PREFETCH     ACCESS:          0 HIT:          0 MISS:          0
cpu0_ITLB WRITE        ACCESS:          0 HIT:          0 MISS:          0
cpu0_ITLB TRANSLATION  ACCESS:          0 HIT:          0 MISS:          0
cpu0_ITLB PREFETCH REQUESTED:          0 ISSUED:          0 USEFUL:          0 USELESS:          0
cpu0_ITLB AVERAGE MISS LATENCY: -nan cycles
cpu0_L1D TOTAL        ACCESS:    8040479 HIT:    4906376 MISS:    3134103
cpu0_L1D LOAD         ACCESS:    1728030 HIT:    1156861 MISS:     571169
cpu0_L1D RFO          ACCESS:          0 HIT:          0 MISS:          0
cpu0_L1D PREFETCH     ACCESS:    1726362 HIT:     962151 MISS:     764211
cpu0_L1D WRITE        ACCESS:    4567593 HIT:    2787343 MISS:    1780250
cpu0_L1D TRANSLATION  ACCESS:      18494 HIT:         21 MISS:      18473
cpu0_L1D PREFETCH REQUESTED:   17212875 ISSUED:    1726364 USEFUL:      72423 USELESS:       2642
cpu0_L1D AVERAGE MISS LATENCY: 705.2 cycles
cpu0_L1I TOTAL        ACCESS:          0 HIT:          0 MISS:          0
cpu0_L1I LOAD         ACCESS:          0 HIT:          0 MISS:          0
cpu0_L1I RFO          ACCESS:          0 HIT:          0 MISS:          0
cpu0_L1I PREFETCH     ACCESS:          0 HIT:          0 MISS:          0
cpu0_L1I WRITE        ACCESS:          0 HIT:          0 MISS:          0
cpu0_L1I TRANSLATION  ACCESS:          0 HIT:          0 MISS:          0
cpu0_L1I PREFETCH REQUESTED:          0 ISSUED:          0 USEFUL:          0 USELESS:          0
cpu0_L1I AVERAGE MISS LATENCY: -nan cycles
cpu0_L2C TOTAL        ACCESS:    3739526 HIT:    1844981 MISS:    1894545
cpu0_L2C LOAD         ACCESS:     223451 HIT:      15848 MISS:     207603
cpu0_L2C RFO          ACCESS:    1675337 HIT:     122885 MISS:    1552452
cpu0_L2C PREFETCH     ACCESS:     146924 HIT:      12980 MISS:     133944
cpu0_L2C WRITE        ACCESS:    1675341 HIT:    1675341 MISS:          0
cpu0_L2C TRANSLATION  ACCESS:      18473 HIT:      17927 MISS:        546
cpu0_L2C PREFETCH REQUESTED:      71857 ISSUED:      71857 USEFUL:      16971 USELESS:        484
cpu0_L2C AVERAGE MISS LATENCY: 1268 cycles
cpu0_STLB TOTAL        ACCESS:      34048 HIT:      15572 MISS:      18476
cpu0_STLB LOAD         ACCESS:      34048 HIT:      15572 MISS:      18476
cpu0_STLB RFO          ACCESS:          0 HIT:          0 MISS:          0
cpu0_STLB PREFETCH     ACCESS:          0 HIT:          0 MISS:          0
cpu0_STLB WRITE        ACCESS:          0 HIT:          0 MISS:          0
cpu0_STLB TRANSLATION  ACCESS:          0 HIT:          0 MISS:          0
cpu0_STLB PREFETCH REQUESTED:          0 ISSUED:          0 USEFUL:          0 USELESS:          0
cpu0_STLB AVERAGE MISS LATENCY: 441.6 cycles

DRAM Statistics

Channel 0 RQ ROW_BUFFER_HIT:      85447
  ROW_BUFFER_MISS:    1096918
 AVG DBUS CONGESTED CYCLE: 3.984
WQ ROW_BUFFER_HIT: Channel 0 
  ROW_BUFFER_MISS:      19385
  FULL:     870653
