WARNING: physical memory size is smaller than virtual memory size.

*** ChampSim Multicore Out-of-Order Simulator ***
Warmup Instructions: 25000000
Simulation Instructions: 25000000
Number of CPUs: 1
Page size: 4096

Off-chip DRAM Size: 4 GiB Channels: 1 Width: 64-bit Data Race: 800 MT/s
Heartbeat CPU 0 instructions: 10000000 cycles: 2502354 heartbeat IPC: 3.996 cumulative IPC: 3.996 (Simulation time: 00 hr 00 min 35 sec)
Heartbeat CPU 0 instructions: 20000001 cycles: 5004367 heartbeat IPC: 3.997 cumulative IPC: 3.997 (Simulation time: 00 hr 01 min 11 sec)
Warmup finished CPU 0 instructions: 25000001 cycles: 6255500 cumulative IPC: 3.996 (Simulation time: 00 hr 01 min 29 sec)
Warmup complete CPU 0 instructions: 25000001 cycles: 6255500 cumulative IPC: 3.996 (Simulation time: 00 hr 01 min 29 sec)
Heartbeat CPU 0 instructions: 30000002 cycles: 19104453 heartbeat IPC: 0.7092 cumulative IPC: 0.3891 (Simulation time: 00 hr 02 min 46 sec)
Heartbeat CPU 0 instructions: 40000000 cycles: 44540691 heartbeat IPC: 0.3931 cumulative IPC: 0.3918 (Simulation time: 00 hr 05 min 18 sec)
Heartbeat CPU 0 instructions: 50000001 cycles: 69655807 heartbeat IPC: 0.3982 cumulative IPC: 0.3943 (Simulation time: 00 hr 07 min 45 sec)
Simulation finished CPU 0 instructions: 25000000 cycles: 63400308 cumulative IPC: 0.3943 (Simulation time: 00 hr 07 min 45 sec)
Simulation complete CPU 0 instructions: 25000000 cycles: 63400308 cumulative IPC: 0.3943 (Simulation time: 00 hr 07 min 45 sec)

ChampSim completed all CPUs

=== Simulation ===
CPU 0 runs ./traces/620.omnetpp_s-874B.champsimtrace.xz
Region of Interest Statistics

CPU 0 cumulative IPC: 0.3943 instructions: 25000000 cycles: 63400308
CPU 0 Branch Prediction Accuracy: 92.93% MPKI: 14.75 Average ROB Occupancy at Mispredict: 57.59
Branch type MPKI
BRANCH_DIRECT_JUMP: 0.944
BRANCH_INDIRECT: 0.117
BRANCH_CONDITIONAL: 12.6
BRANCH_DIRECT_CALL: 0.00312
BRANCH_INDIRECT_CALL: 0.731
BRANCH_RETURN: 0.39

LLC TOTAL        ACCESS:     882719 HIT:     415325 MISS:     467394
LLC LOAD         ACCESS:     287736 HIT:     102304 MISS:     185432
LLC RFO          ACCESS:      34329 HIT:      14169 MISS:      20160
LLC PREFETCH     ACCESS:     255140 HIT:      89716 MISS:     165424
LLC WRITE        ACCESS:     199432 HIT:     198204 MISS:       1228
LLC TRANSLATION  ACCESS:     106082 HIT:      10932 MISS:      95150
LLC PREFETCH REQUESTED:          0 ISSUED:          0 USEFUL:          0 USELESS:          0
LLC AVERAGE MISS LATENCY: 381.7 cycles
cpu0_DTLB TOTAL        ACCESS:    7862145 HIT:    7255755 MISS:     606390
cpu0_DTLB LOAD         ACCESS:    7862145 HIT:    7255755 MISS:     606390
cpu0_DTLB RFO          ACCESS:          0 HIT:          0 MISS:          0
cpu0_DTLB PREFETCH     ACCESS:          0 HIT:          0 MISS:          0
cpu0_DTLB WRITE        ACCESS:          0 HIT:          0 MISS:          0
cpu0_DTLB TRANSLATION  ACCESS:          0 HIT:          0 MISS:          0
cpu0_DTLB PREFETCH REQUESTED:          0 ISSUED:          0 USEFUL:          0 USELESS:          0
cpu0_DTLB AVERAGE MISS LATENCY: 75.48 cycles
cpu0_ITLB TOTAL        ACCESS:    2032045 HIT:    1974987 MISS:      57058
cpu0_ITLB LOAD         ACCESS:    2032045 HIT:    1974987 MISS:      57058
cpu0_ITLB RFO          ACCESS:          0 HIT:          0 MISS:          0
cpu0_ITLB PREFETCH     ACCESS:          0 HIT:          0 MISS:          0
cpu0_ITLB WRITE        ACCESS:          0 HIT:          0 MISS:          0
cpu0_ITLB TRANSLATION  ACCESS:          0 HIT:          0 MISS:          0
cpu0_ITLB PREFETCH REQUESTED:          0 ISSUED:          0 USEFUL:          0 USELESS:          0
cpu0_ITLB AVERAGE MISS LATENCY: 5.467 cycles
cpu0_L1D TOTAL        ACCESS:   14704406 HIT:   13090932 MISS:    1613474
cpu0_L1D LOAD         ACCESS:    5562904 HIT:    4880988 MISS:     681916
cpu0_L1D RFO          ACCESS:          0 HIT:          0 MISS:          0
cpu0_L1D PREFETCH     ACCESS:    4383159 HIT:    3735975 MISS:     647184
cpu0_L1D WRITE        ACCESS:    4605009 HIT:    4462669 MISS:     142340
cpu0_L1D TRANSLATION  ACCESS:     153334 HIT:      11300 MISS:     142034
cpu0_L1D PREFETCH REQUESTED:    5599993 ISSUED:    4383154 USEFUL:      93952 USELESS:     285983
cpu0_L1D AVERAGE MISS LATENCY: 120.5 cycles
cpu0_L1I TOTAL        ACCESS:    2223436 HIT:    2210705 MISS:      12731
cpu0_L1I LOAD         ACCESS:    2223436 HIT:    2210705 MISS:      12731
cpu0_L1I RFO          ACCESS:          0 HIT:          0 MISS:          0
cpu0_L1I PREFETCH     ACCESS:          0 HIT:          0 MISS:          0
cpu0_L1I WRITE        ACCESS:          0 HIT:          0 MISS:          0
cpu0_L1I TRANSLATION  ACCESS:          0 HIT:          0 MISS:          0
cpu0_L1I PREFETCH REQUESTED:          0 ISSUED:          0 USEFUL:          0 USELESS:          0
cpu0_L1I AVERAGE MISS LATENCY: 25.3 cycles
cpu0_L2C TOTAL        ACCESS:    1285885 HIT:     601094 MISS:     684791
cpu0_L2C LOAD         ACCESS:     448029 HIT:     160282 MISS:     287747
cpu0_L2C RFO          ACCESS:      41935 HIT:       7606 MISS:      34329
cpu0_L2C PREFETCH     ACCESS:     384878 HIT:     129713 MISS:     255165
cpu0_L2C WRITE        ACCESS:     269255 HIT:     267787 MISS:       1468
cpu0_L2C TRANSLATION  ACCESS:     141788 HIT:      35706 MISS:     106082
cpu0_L2C PREFETCH REQUESTED:       4888 ISSUED:       4888 USEFUL:        945 USELESS:       3345
cpu0_L2C AVERAGE MISS LATENCY: 281.2 cycles
cpu0_STLB TOTAL        ACCESS:     508524 HIT:     398253 MISS:     110271
cpu0_STLB LOAD         ACCESS:     508524 HIT:     398253 MISS:     110271
cpu0_STLB RFO          ACCESS:          0 HIT:          0 MISS:          0
cpu0_STLB PREFETCH     ACCESS:          0 HIT:          0 MISS:          0
cpu0_STLB WRITE        ACCESS:          0 HIT:          0 MISS:          0
cpu0_STLB TRANSLATION  ACCESS:          0 HIT:          0 MISS:          0
cpu0_STLB PREFETCH REQUESTED:          0 ISSUED:          0 USEFUL:          0 USELESS:          0
cpu0_STLB AVERAGE MISS LATENCY: 391.7 cycles

DRAM Statistics

Channel 0 RQ ROW_BUFFER_HIT:      44074
  ROW_BUFFER_MISS:     421943
 AVG DBUS CONGESTED CYCLE: 3.946
WQ ROW_BUFFER_HIT: Channel 0 
  ROW_BUFFER_MISS:       2845
  FULL:     122941
