WARNING: physical memory size is smaller than virtual memory size.

*** ChampSim Multicore Out-of-Order Simulator ***
Warmup Instructions: 25000000
Simulation Instructions: 25000000
Number of CPUs: 1
Page size: 4096

Off-chip DRAM Size: 4 GiB Channels: 1 Width: 64-bit Data Race: 800 MT/s
Heartbeat CPU 0 instructions: 10000003 cycles: 2500092 heartbeat IPC: 4 cumulative IPC: 4 (Simulation time: 00 hr 00 min 27 sec)
Heartbeat CPU 0 instructions: 20000003 cycles: 5002128 heartbeat IPC: 3.997 cumulative IPC: 3.998 (Simulation time: 00 hr 00 min 54 sec)
Warmup finished CPU 0 instructions: 25000000 cycles: 6252195 cumulative IPC: 3.999 (Simulation time: 00 hr 01 min 06 sec)
Warmup complete CPU 0 instructions: 25000000 cycles: 6252195 cumulative IPC: 3.999 (Simulation time: 00 hr 01 min 06 sec)
Heartbeat CPU 0 instructions: 30000001 cycles: 10499715 heartbeat IPC: 1.819 cumulative IPC: 1.177 (Simulation time: 00 hr 01 min 42 sec)
Heartbeat CPU 0 instructions: 40000000 cycles: 48402416 heartbeat IPC: 0.2638 cumulative IPC: 0.3559 (Simulation time: 00 hr 05 min 52 sec)
Heartbeat CPU 0 instructions: 50000003 cycles: 69222413 heartbeat IPC: 0.4803 cumulative IPC: 0.397 (Simulation time: 00 hr 08 min 17 sec)
Simulation finished CPU 0 instructions: 25000003 cycles: 62970219 cumulative IPC: 0.397 (Simulation time: 00 hr 08 min 17 sec)
Simulation complete CPU 0 instructions: 25000003 cycles: 62970219 cumulative IPC: 0.397 (Simulation time: 00 hr 08 min 17 sec)

ChampSim completed all CPUs

=== Simulation ===
CPU 0 runs ./traces/621.wrf_s-6673B.champsimtrace.xz
Region of Interest Statistics

CPU 0 cumulative IPC: 0.397 instructions: 25000003 cycles: 62970219
CPU 0 Branch Prediction Accuracy: 96.82% MPKI: 2.139 Average ROB Occupancy at Mispredict: 300.5
Branch type MPKI
BRANCH_DIRECT_JUMP: 0.00072
BRANCH_INDIRECT: 0
BRANCH_CONDITIONAL: 2.12
BRANCH_DIRECT_CALL: 0.00672
BRANCH_INDIRECT_CALL: 0
BRANCH_RETURN: 0.0062

LLC TOTAL        ACCESS:     952678 HIT:     288702 MISS:     663976
LLC LOAD         ACCESS:     171073 HIT:      16196 MISS:     154877
LLC RFO          ACCESS:     134972 HIT:       6382 MISS:     128590
LLC PREFETCH     ACCESS:     400405 HIT:      21455 MISS:     378950
LLC WRITE        ACCESS:     245309 HIT:     244398 MISS:        911
LLC TRANSLATION  ACCESS:        919 HIT:        271 MISS:        648
LLC PREFETCH REQUESTED:          0 ISSUED:          0 USEFUL:          0 USELESS:          0
LLC AVERAGE MISS LATENCY: 1260 cycles
cpu0_DTLB TOTAL        ACCESS:    6205160 HIT:    6137139 MISS:      68021
cpu0_DTLB LOAD         ACCESS:    6205160 HIT:    6137139 MISS:      68021
cpu0_DTLB RFO          ACCESS:          0 HIT:          0 MISS:          0
cpu0_DTLB PREFETCH     ACCESS:          0 HIT:          0 MISS:          0
cpu0_DTLB WRITE        ACCESS:          0 HIT:          0 MISS:          0
cpu0_DTLB TRANSLATION  ACCESS:          0 HIT:          0 MISS:          0
cpu0_DTLB PREFETCH REQUESTED:          0 ISSUED:          0 USEFUL:          0 USELESS:          0
cpu0_DTLB AVERAGE MISS LATENCY: 28.53 cycles
cpu0_ITLB TOTAL        ACCESS:       7203 HIT:       7094 MISS:        109
cpu0_ITLB LOAD         ACCESS:       7203 HIT:       7094 MISS:        109
cpu0_ITLB RFO          ACCESS:          0 HIT:          0 MISS:          0
cpu0_ITLB PREFETCH     ACCESS:          0 HIT:          0 MISS:          0
cpu0_ITLB WRITE        ACCESS:          0 HIT:          0 MISS:          0
cpu0_ITLB TRANSLATION  ACCESS:          0 HIT:          0 MISS:          0
cpu0_ITLB PREFETCH REQUESTED:          0 ISSUED:          0 USEFUL:          0 USELESS:          0
cpu0_ITLB AVERAGE MISS LATENCY: 194 cycles
cpu0_L1D TOTAL        ACCESS:   10391249 HIT:    6481724 MISS:    3909525
cpu0_L1D LOAD         ACCESS:    5512300 HIT:    3729297 MISS:    1783003
cpu0_L1D RFO          ACCESS:          0 HIT:          0 MISS:          0
cpu0_L1D PREFETCH     ACCESS:    3006863 HIT:    1689321 MISS:    1317542
cpu0_L1D WRITE        ACCESS:    1864223 HIT:    1058898 MISS:     805325
cpu0_L1D TRANSLATION  ACCESS:       7863 HIT:       4208 MISS:       3655
cpu0_L1D PREFETCH REQUESTED:   17002128 ISSUED:    3006868 USEFUL:     300877 USELESS:      22451
cpu0_L1D AVERAGE MISS LATENCY: 148.5 cycles
cpu0_L1I TOTAL        ACCESS:       9454 HIT:       7780 MISS:       1674
cpu0_L1I LOAD         ACCESS:       9454 HIT:       7780 MISS:       1674
cpu0_L1I RFO          ACCESS:          0 HIT:          0 MISS:          0
cpu0_L1I PREFETCH     ACCESS:          0 HIT:          0 MISS:          0
cpu0_L1I WRITE        ACCESS:          0 HIT:          0 MISS:          0
cpu0_L1I TRANSLATION  ACCESS:          0 HIT:          0 MISS:          0
cpu0_L1I PREFETCH REQUESTED:          0 ISSUED:          0 USEFUL:          0 USELESS:          0
cpu0_L1I AVERAGE MISS LATENCY: 416.6 cycles
cpu0_L2C TOTAL        ACCESS:    1236612 HIT:     486581 MISS:     750031
cpu0_L2C LOAD         ACCESS:     226499 HIT:      44249 MISS:     182250
cpu0_L2C RFO          ACCESS:     162310 HIT:      27314 MISS:     134996
cpu0_L2C PREFETCH     ACCESS:     542796 HIT:     111020 MISS:     431776
cpu0_L2C WRITE        ACCESS:     301643 HIT:     301553 MISS:         90
cpu0_L2C TRANSLATION  ACCESS:       3364 HIT:       2445 MISS:        919
cpu0_L2C PREFETCH REQUESTED:     219469 ISSUED:     219468 USEFUL:      25015 USELESS:      10468
cpu0_L2C AVERAGE MISS LATENCY: 1033 cycles
cpu0_STLB TOTAL        ACCESS:      23597 HIT:      15694 MISS:       7903
cpu0_STLB LOAD         ACCESS:      23597 HIT:      15694 MISS:       7903
cpu0_STLB RFO          ACCESS:          0 HIT:          0 MISS:          0
cpu0_STLB PREFETCH     ACCESS:          0 HIT:          0 MISS:          0
cpu0_STLB WRITE        ACCESS:          0 HIT:          0 MISS:          0
cpu0_STLB TRANSLATION  ACCESS:          0 HIT:          0 MISS:          0
cpu0_STLB PREFETCH REQUESTED:          0 ISSUED:          0 USEFUL:          0 USELESS:          0
cpu0_STLB AVERAGE MISS LATENCY: 356 cycles

DRAM Statistics

Channel 0 RQ ROW_BUFFER_HIT:     165187
  ROW_BUFFER_MISS:     397719
 AVG DBUS CONGESTED CYCLE: 3.926
WQ ROW_BUFFER_HIT: Channel 0 
  ROW_BUFFER_MISS:      13562
  FULL:     228681
