WARNING: physical memory size is smaller than virtual memory size.

*** ChampSim Multicore Out-of-Order Simulator ***
Warmup Instructions: 25000000
Simulation Instructions: 25000000
Number of CPUs: 1
Page size: 4096

Off-chip DRAM Size: 4 GiB Channels: 1 Width: 64-bit Data Race: 800 MT/s
Heartbeat CPU 0 instructions: 10000003 cycles: 2605674 heartbeat IPC: 3.838 cumulative IPC: 3.838 (Simulation time: 00 hr 00 min 31 sec)
Heartbeat CPU 0 instructions: 20000003 cycles: 5105674 heartbeat IPC: 4 cumulative IPC: 3.917 (Simulation time: 00 hr 00 min 59 sec)
Warmup finished CPU 0 instructions: 25000003 cycles: 6355675 cumulative IPC: 3.933 (Simulation time: 00 hr 01 min 13 sec)
Warmup complete CPU 0 instructions: 25000003 cycles: 6355675 cumulative IPC: 3.933 (Simulation time: 00 hr 01 min 13 sec)
Heartbeat CPU 0 instructions: 30000000 cycles: 11298060 heartbeat IPC: 1.615 cumulative IPC: 1.012 (Simulation time: 00 hr 01 min 56 sec)
Heartbeat CPU 0 instructions: 40000001 cycles: 21435010 heartbeat IPC: 0.9865 cumulative IPC: 0.9947 (Simulation time: 00 hr 03 min 20 sec)
Heartbeat CPU 0 instructions: 50000003 cycles: 26331659 heartbeat IPC: 2.042 cumulative IPC: 1.252 (Simulation time: 00 hr 04 min 13 sec)
Simulation finished CPU 0 instructions: 25000000 cycles: 19975985 cumulative IPC: 1.252 (Simulation time: 00 hr 04 min 13 sec)
Simulation complete CPU 0 instructions: 25000000 cycles: 19975985 cumulative IPC: 1.252 (Simulation time: 00 hr 04 min 13 sec)

ChampSim completed all CPUs

=== Simulation ===
CPU 0 runs ./traces/621.wrf_s-8065B.champsimtrace.xz
Region of Interest Statistics

CPU 0 cumulative IPC: 1.252 instructions: 25000000 cycles: 19975985
CPU 0 Branch Prediction Accuracy: 95.11% MPKI: 1.601 Average ROB Occupancy at Mispredict: 224.5
Branch type MPKI
BRANCH_DIRECT_JUMP: 0.00028
BRANCH_INDIRECT: 0
BRANCH_CONDITIONAL: 1.6
BRANCH_DIRECT_CALL: 0.00096
BRANCH_INDIRECT_CALL: 0
BRANCH_RETURN: 0.00104

LLC TOTAL        ACCESS:     435687 HIT:     281170 MISS:     154517
LLC LOAD         ACCESS:      65781 HIT:      38250 MISS:      27531
LLC RFO          ACCESS:      76686 HIT:      24151 MISS:      52535
LLC PREFETCH     ACCESS:     153979 HIT:      81038 MISS:      72941
LLC WRITE        ACCESS:     139031 HIT:     137701 MISS:       1330
LLC TRANSLATION  ACCESS:        210 HIT:         30 MISS:        180
LLC PREFETCH REQUESTED:          0 ISSUED:          0 USEFUL:          0 USELESS:          0
LLC AVERAGE MISS LATENCY: 806.9 cycles
cpu0_DTLB TOTAL        ACCESS:    5936360 HIT:    5897880 MISS:      38480
cpu0_DTLB LOAD         ACCESS:    5936360 HIT:    5897880 MISS:      38480
cpu0_DTLB RFO          ACCESS:          0 HIT:          0 MISS:          0
cpu0_DTLB PREFETCH     ACCESS:          0 HIT:          0 MISS:          0
cpu0_DTLB WRITE        ACCESS:          0 HIT:          0 MISS:          0
cpu0_DTLB TRANSLATION  ACCESS:          0 HIT:          0 MISS:          0
cpu0_DTLB PREFETCH REQUESTED:          0 ISSUED:          0 USEFUL:          0 USELESS:          0
cpu0_DTLB AVERAGE MISS LATENCY: 11.21 cycles
cpu0_ITLB TOTAL        ACCESS:       1832 HIT:       1735 MISS:         97
cpu0_ITLB LOAD         ACCESS:       1832 HIT:       1735 MISS:         97
cpu0_ITLB RFO          ACCESS:          0 HIT:          0 MISS:          0
cpu0_ITLB PREFETCH     ACCESS:          0 HIT:          0 MISS:          0
cpu0_ITLB WRITE        ACCESS:          0 HIT:          0 MISS:          0
cpu0_ITLB TRANSLATION  ACCESS:          0 HIT:          0 MISS:          0
cpu0_ITLB PREFETCH REQUESTED:          0 ISSUED:          0 USEFUL:          0 USELESS:          0
cpu0_ITLB AVERAGE MISS LATENCY: 97.16 cycles
cpu0_L1D TOTAL        ACCESS:    9661809 HIT:    8181832 MISS:    1479977
cpu0_L1D LOAD         ACCESS:    6216852 HIT:    5587946 MISS:     628906
cpu0_L1D RFO          ACCESS:          0 HIT:          0 MISS:          0
cpu0_L1D PREFETCH     ACCESS:    2347080 HIT:    1892284 MISS:     454796
cpu0_L1D WRITE        ACCESS:    1096060 HIT:     700883 MISS:     395177
cpu0_L1D TRANSLATION  ACCESS:       1817 HIT:        719 MISS:       1098
cpu0_L1D PREFETCH REQUESTED:    6589663 ISSUED:    2347078 USEFUL:     195982 USELESS:      10744
cpu0_L1D AVERAGE MISS LATENCY: 73.98 cycles
cpu0_L1I TOTAL        ACCESS:       2314 HIT:        529 MISS:       1785
cpu0_L1I LOAD         ACCESS:       2314 HIT:        529 MISS:       1785
cpu0_L1I RFO          ACCESS:          0 HIT:          0 MISS:          0
cpu0_L1I PREFETCH     ACCESS:          0 HIT:          0 MISS:          0
cpu0_L1I WRITE        ACCESS:          0 HIT:          0 MISS:          0
cpu0_L1I TRANSLATION  ACCESS:          0 HIT:          0 MISS:          0
cpu0_L1I PREFETCH REQUESTED:          0 ISSUED:          0 USEFUL:          0 USELESS:          0
cpu0_L1I AVERAGE MISS LATENCY: 309.7 cycles
cpu0_L2C TOTAL        ACCESS:     691011 HIT:     354510 MISS:     336501
cpu0_L2C LOAD         ACCESS:     129710 HIT:      56401 MISS:      73309
cpu0_L2C RFO          ACCESS:      84572 HIT:       7886 MISS:      76686
cpu0_L2C PREFETCH     ACCESS:     316222 HIT:     130013 MISS:     186209
cpu0_L2C WRITE        ACCESS:     159444 HIT:     159357 MISS:         87
cpu0_L2C TRANSLATION  ACCESS:       1063 HIT:        853 MISS:        210
cpu0_L2C PREFETCH REQUESTED:     109514 ISSUED:     109512 USEFUL:      44450 USELESS:       6247
cpu0_L2C AVERAGE MISS LATENCY: 385 cycles
cpu0_STLB TOTAL        ACCESS:      25210 HIT:      23401 MISS:       1809
cpu0_STLB LOAD         ACCESS:      25210 HIT:      23401 MISS:       1809
cpu0_STLB RFO          ACCESS:          0 HIT:          0 MISS:          0
cpu0_STLB PREFETCH     ACCESS:          0 HIT:          0 MISS:          0
cpu0_STLB WRITE        ACCESS:          0 HIT:          0 MISS:          0
cpu0_STLB TRANSLATION  ACCESS:          0 HIT:          0 MISS:          0
cpu0_STLB PREFETCH REQUESTED:          0 ISSUED:          0 USEFUL:          0 USELESS:          0
cpu0_STLB AVERAGE MISS LATENCY: 216 cycles

DRAM Statistics

Channel 0 RQ ROW_BUFFER_HIT:      50611
  ROW_BUFFER_MISS:     101698
 AVG DBUS CONGESTED CYCLE: 3.928
WQ ROW_BUFFER_HIT: Channel 0 
  ROW_BUFFER_MISS:       6682
  FULL:      76264
