WARNING: physical memory size is smaller than virtual memory size.

*** ChampSim Multicore Out-of-Order Simulator ***
Warmup Instructions: 25000000
Simulation Instructions: 25000000
Number of CPUs: 1
Page size: 4096

Off-chip DRAM Size: 4 GiB Channels: 1 Width: 64-bit Data Race: 800 MT/s
Heartbeat CPU 0 instructions: 10000001 cycles: 2504942 heartbeat IPC: 3.992 cumulative IPC: 3.992 (Simulation time: 00 hr 00 min 28 sec)
Heartbeat CPU 0 instructions: 20000000 cycles: 5005879 heartbeat IPC: 3.999 cumulative IPC: 3.995 (Simulation time: 00 hr 00 min 55 sec)
Warmup finished CPU 0 instructions: 25000000 cycles: 6257440 cumulative IPC: 3.995 (Simulation time: 00 hr 01 min 09 sec)
Warmup complete CPU 0 instructions: 25000000 cycles: 6257440 cumulative IPC: 3.995 (Simulation time: 00 hr 01 min 09 sec)
Heartbeat CPU 0 instructions: 30000000 cycles: 16618882 heartbeat IPC: 0.8611 cumulative IPC: 0.4826 (Simulation time: 00 hr 02 min 06 sec)
Heartbeat CPU 0 instructions: 40000003 cycles: 37442123 heartbeat IPC: 0.4802 cumulative IPC: 0.481 (Simulation time: 00 hr 03 min 57 sec)
Heartbeat CPU 0 instructions: 50000003 cycles: 63619728 heartbeat IPC: 0.382 cumulative IPC: 0.4358 (Simulation time: 00 hr 06 min 13 sec)
Simulation finished CPU 0 instructions: 25000003 cycles: 57362289 cumulative IPC: 0.4358 (Simulation time: 00 hr 06 min 13 sec)
Simulation complete CPU 0 instructions: 25000003 cycles: 57362289 cumulative IPC: 0.4358 (Simulation time: 00 hr 06 min 13 sec)

ChampSim completed all CPUs

=== Simulation ===
CPU 0 runs ./traces/623.xalancbmk_s-10B.champsimtrace.xz
Region of Interest Statistics

CPU 0 cumulative IPC: 0.4358 instructions: 25000003 cycles: 57362289
CPU 0 Branch Prediction Accuracy: 94.41% MPKI: 14.5 Average ROB Occupancy at Mispredict: 40.01
Branch type MPKI
BRANCH_DIRECT_JUMP: 0.0934
BRANCH_INDIRECT: 0.0223
BRANCH_CONDITIONAL: 13.9
BRANCH_DIRECT_CALL: 4e-05
BRANCH_INDIRECT_CALL: 0.127
BRANCH_RETURN: 0.402

LLC TOTAL        ACCESS:     962675 HIT:     177701 MISS:     784974
LLC LOAD         ACCESS:     632589 HIT:     119112 MISS:     513477
LLC RFO          ACCESS:       5983 HIT:       3091 MISS:       2892
LLC PREFETCH     ACCESS:     278254 HIT:      37555 MISS:     240699
LLC WRITE        ACCESS:      13164 HIT:      13103 MISS:         61
LLC TRANSLATION  ACCESS:      32685 HIT:       4840 MISS:      27845
LLC PREFETCH REQUESTED:          0 ISSUED:          0 USEFUL:          0 USELESS:          0
LLC AVERAGE MISS LATENCY: 321.5 cycles
cpu0_DTLB TOTAL        ACCESS:    5868897 HIT:    5490121 MISS:     378776
cpu0_DTLB LOAD         ACCESS:    5868897 HIT:    5490121 MISS:     378776
cpu0_DTLB RFO          ACCESS:          0 HIT:          0 MISS:          0
cpu0_DTLB PREFETCH     ACCESS:          0 HIT:          0 MISS:          0
cpu0_DTLB WRITE        ACCESS:          0 HIT:          0 MISS:          0
cpu0_DTLB TRANSLATION  ACCESS:          0 HIT:          0 MISS:          0
cpu0_DTLB PREFETCH REQUESTED:          0 ISSUED:          0 USEFUL:          0 USELESS:          0
cpu0_DTLB AVERAGE MISS LATENCY: 30.79 cycles
cpu0_ITLB TOTAL        ACCESS:     344107 HIT:     302848 MISS:      41259
cpu0_ITLB LOAD         ACCESS:     344107 HIT:     302848 MISS:      41259
cpu0_ITLB RFO          ACCESS:          0 HIT:          0 MISS:          0
cpu0_ITLB PREFETCH     ACCESS:          0 HIT:          0 MISS:          0
cpu0_ITLB WRITE        ACCESS:          0 HIT:          0 MISS:          0
cpu0_ITLB TRANSLATION  ACCESS:          0 HIT:          0 MISS:          0
cpu0_ITLB PREFETCH REQUESTED:          0 ISSUED:          0 USEFUL:          0 USELESS:          0
cpu0_ITLB AVERAGE MISS LATENCY: 7.121 cycles
cpu0_L1D TOTAL        ACCESS:   12292650 HIT:    9988028 MISS:    2304622
cpu0_L1D LOAD         ACCESS:    6087217 HIT:    4857523 MISS:    1229694
cpu0_L1D RFO          ACCESS:          0 HIT:          0 MISS:          0
cpu0_L1D PREFETCH     ACCESS:    4846330 HIT:    3900706 MISS:     945624
cpu0_L1D WRITE        ACCESS:    1231574 HIT:    1154915 MISS:      76659
cpu0_L1D TRANSLATION  ACCESS:     127529 HIT:      74884 MISS:      52645
cpu0_L1D PREFETCH REQUESTED:    6088590 ISSUED:    4846333 USEFUL:      39062 USELESS:     275251
cpu0_L1D AVERAGE MISS LATENCY: 121 cycles
cpu0_L1I TOTAL        ACCESS:     382708 HIT:     244961 MISS:     137747
cpu0_L1I LOAD         ACCESS:     382708 HIT:     244961 MISS:     137747
cpu0_L1I RFO          ACCESS:          0 HIT:          0 MISS:          0
cpu0_L1I PREFETCH     ACCESS:          0 HIT:          0 MISS:          0
cpu0_L1I WRITE        ACCESS:          0 HIT:          0 MISS:          0
cpu0_L1I TRANSLATION  ACCESS:          0 HIT:          0 MISS:          0
cpu0_L1I PREFETCH REQUESTED:          0 ISSUED:          0 USEFUL:          0 USELESS:          0
cpu0_L1I AVERAGE MISS LATENCY: 14.47 cycles
cpu0_L2C TOTAL        ACCESS:    1230081 HIT:     278421 MISS:     951660
cpu0_L2C LOAD         ACCESS:     776569 HIT:     143490 MISS:     633079
cpu0_L2C RFO          ACCESS:      18757 HIT:      12772 MISS:       5985
cpu0_L2C PREFETCH     ACCESS:     335635 HIT:      55967 MISS:     279668
cpu0_L2C WRITE        ACCESS:      46864 HIT:      46621 MISS:        243
cpu0_L2C TRANSLATION  ACCESS:      52256 HIT:      19571 MISS:      32685
cpu0_L2C PREFETCH REQUESTED:      21283 ISSUED:      21283 USEFUL:       6361 USELESS:       6495
cpu0_L2C AVERAGE MISS LATENCY: 285.8 cycles
cpu0_STLB TOTAL        ACCESS:     186134 HIT:      59274 MISS:     126860
cpu0_STLB LOAD         ACCESS:     186134 HIT:      59274 MISS:     126860
cpu0_STLB RFO          ACCESS:          0 HIT:          0 MISS:          0
cpu0_STLB PREFETCH     ACCESS:          0 HIT:          0 MISS:          0
cpu0_STLB WRITE        ACCESS:          0 HIT:          0 MISS:          0
cpu0_STLB TRANSLATION  ACCESS:          0 HIT:          0 MISS:          0
cpu0_STLB PREFETCH REQUESTED:          0 ISSUED:          0 USEFUL:          0 USELESS:          0
cpu0_STLB AVERAGE MISS LATENCY: 87.15 cycles

DRAM Statistics

Channel 0 RQ ROW_BUFFER_HIT:     461792
  ROW_BUFFER_MISS:     323019
 AVG DBUS CONGESTED CYCLE: 3.872
WQ ROW_BUFFER_HIT: Channel 0 
  ROW_BUFFER_MISS:       1107
  FULL:       3391
