WARNING: physical memory size is smaller than virtual memory size.

*** ChampSim Multicore Out-of-Order Simulator ***
Warmup Instructions: 25000000
Simulation Instructions: 25000000
Number of CPUs: 1
Page size: 4096

Off-chip DRAM Size: 4 GiB Channels: 1 Width: 64-bit Data Race: 800 MT/s
Heartbeat CPU 0 instructions: 10000002 cycles: 2500210 heartbeat IPC: 4 cumulative IPC: 4 (Simulation time: 00 hr 00 min 29 sec)
Heartbeat CPU 0 instructions: 20000003 cycles: 5006997 heartbeat IPC: 3.989 cumulative IPC: 3.994 (Simulation time: 00 hr 00 min 57 sec)
Warmup finished CPU 0 instructions: 25000003 cycles: 6257015 cumulative IPC: 3.996 (Simulation time: 00 hr 01 min 11 sec)
Warmup complete CPU 0 instructions: 25000003 cycles: 6257015 cumulative IPC: 3.996 (Simulation time: 00 hr 01 min 11 sec)
Heartbeat CPU 0 instructions: 30000002 cycles: 9717140 heartbeat IPC: 2.123 cumulative IPC: 1.445 (Simulation time: 00 hr 01 min 38 sec)
Heartbeat CPU 0 instructions: 40000003 cycles: 16546329 heartbeat IPC: 1.464 cumulative IPC: 1.458 (Simulation time: 00 hr 02 min 31 sec)
Heartbeat CPU 0 instructions: 50000003 cycles: 21185329 heartbeat IPC: 2.156 cumulative IPC: 1.675 (Simulation time: 00 hr 03 min 13 sec)
Simulation finished CPU 0 instructions: 25000000 cycles: 14928315 cumulative IPC: 1.675 (Simulation time: 00 hr 03 min 13 sec)
Simulation complete CPU 0 instructions: 25000000 cycles: 14928315 cumulative IPC: 1.675 (Simulation time: 00 hr 03 min 13 sec)

ChampSim completed all CPUs

=== Simulation ===
CPU 0 runs ./traces/623.xalancbmk_s-325B.champsimtrace.xz
Region of Interest Statistics

CPU 0 cumulative IPC: 1.675 instructions: 25000000 cycles: 14928315
CPU 0 Branch Prediction Accuracy: 95.9% MPKI: 12.3 Average ROB Occupancy at Mispredict: 22.21
Branch type MPKI
BRANCH_DIRECT_JUMP: 0.119
BRANCH_INDIRECT: 0.389
BRANCH_CONDITIONAL: 9.83
BRANCH_DIRECT_CALL: 0
BRANCH_INDIRECT_CALL: 0.401
BRANCH_RETURN: 1.57

LLC TOTAL        ACCESS:     224815 HIT:     184650 MISS:      40165
LLC LOAD         ACCESS:     112247 HIT:     110695 MISS:       1552
LLC RFO          ACCESS:      33866 HIT:        819 MISS:      33047
LLC PREFETCH     ACCESS:      32589 HIT:      27363 MISS:       5226
LLC WRITE        ACCESS:      45583 HIT:      45458 MISS:        125
LLC TRANSLATION  ACCESS:        530 HIT:        315 MISS:        215
LLC PREFETCH REQUESTED:          0 ISSUED:          0 USEFUL:          0 USELESS:          0
LLC AVERAGE MISS LATENCY: 454.2 cycles
cpu0_DTLB TOTAL        ACCESS:    7070728 HIT:    6505935 MISS:     564793
cpu0_DTLB LOAD         ACCESS:    7070728 HIT:    6505935 MISS:     564793
cpu0_DTLB RFO          ACCESS:          0 HIT:          0 MISS:          0
cpu0_DTLB PREFETCH     ACCESS:          0 HIT:          0 MISS:          0
cpu0_DTLB WRITE        ACCESS:          0 HIT:          0 MISS:          0
cpu0_DTLB TRANSLATION  ACCESS:          0 HIT:          0 MISS:          0
cpu0_DTLB PREFETCH REQUESTED:          0 ISSUED:          0 USEFUL:          0 USELESS:          0
cpu0_DTLB AVERAGE MISS LATENCY: 4.062 cycles
cpu0_ITLB TOTAL        ACCESS:     989132 HIT:     963910 MISS:      25222
cpu0_ITLB LOAD         ACCESS:     989132 HIT:     963910 MISS:      25222
cpu0_ITLB RFO          ACCESS:          0 HIT:          0 MISS:          0
cpu0_ITLB PREFETCH     ACCESS:          0 HIT:          0 MISS:          0
cpu0_ITLB WRITE        ACCESS:          0 HIT:          0 MISS:          0
cpu0_ITLB TRANSLATION  ACCESS:          0 HIT:          0 MISS:          0
cpu0_ITLB PREFETCH REQUESTED:          0 ISSUED:          0 USEFUL:          0 USELESS:          0
cpu0_ITLB AVERAGE MISS LATENCY: 2.187 cycles
cpu0_L1D TOTAL        ACCESS:   13424826 HIT:    8815117 MISS:    4609709
cpu0_L1D LOAD         ACCESS:    6138999 HIT:    3714298 MISS:    2424701
cpu0_L1D RFO          ACCESS:          0 HIT:          0 MISS:          0
cpu0_L1D PREFETCH     ACCESS:    5381580 HIT:    3382750 MISS:    1998830
cpu0_L1D WRITE        ACCESS:    1903639 HIT:    1718067 MISS:     185572
cpu0_L1D TRANSLATION  ACCESS:        608 HIT:          2 MISS:        606
cpu0_L1D PREFETCH REQUESTED:    6221013 ISSUED:    5381580 USEFUL:     150589 USELESS:     148878
cpu0_L1D AVERAGE MISS LATENCY: 6.589 cycles
cpu0_L1I TOTAL        ACCESS:    1079194 HIT:     983409 MISS:      95785
cpu0_L1I LOAD         ACCESS:    1079194 HIT:     983409 MISS:      95785
cpu0_L1I RFO          ACCESS:          0 HIT:          0 MISS:          0
cpu0_L1I PREFETCH     ACCESS:          0 HIT:          0 MISS:          0
cpu0_L1I WRITE        ACCESS:          0 HIT:          0 MISS:          0
cpu0_L1I TRANSLATION  ACCESS:          0 HIT:          0 MISS:          0
cpu0_L1I PREFETCH REQUESTED:          0 ISSUED:          0 USEFUL:          0 USELESS:          0
cpu0_L1I AVERAGE MISS LATENCY: 7.709 cycles
cpu0_L2C TOTAL        ACCESS:    1877836 HIT:    1673888 MISS:     203948
cpu0_L2C LOAD         ACCESS:     887426 HIT:     768339 MISS:     119087
cpu0_L2C RFO          ACCESS:      47715 HIT:      13812 MISS:      33903
cpu0_L2C PREFETCH     ACCESS:     848805 HIT:     798402 MISS:      50403
cpu0_L2C WRITE        ACCESS:      93284 HIT:      93259 MISS:         25
cpu0_L2C TRANSLATION  ACCESS:        606 HIT:         76 MISS:        530
cpu0_L2C PREFETCH REQUESTED:     549358 ISSUED:     549330 USEFUL:       9252 USELESS:       1825
cpu0_L2C AVERAGE MISS LATENCY: 106.5 cycles
cpu0_STLB TOTAL        ACCESS:     354790 HIT:     354182 MISS:        608
cpu0_STLB LOAD         ACCESS:     354790 HIT:     354182 MISS:        608
cpu0_STLB RFO          ACCESS:          0 HIT:          0 MISS:          0
cpu0_STLB PREFETCH     ACCESS:          0 HIT:          0 MISS:          0
cpu0_STLB WRITE        ACCESS:          0 HIT:          0 MISS:          0
cpu0_STLB TRANSLATION  ACCESS:          0 HIT:          0 MISS:          0
cpu0_STLB PREFETCH REQUESTED:          0 ISSUED:          0 USEFUL:          0 USELESS:          0
cpu0_STLB AVERAGE MISS LATENCY: 284.4 cycles

DRAM Statistics

Channel 0 RQ ROW_BUFFER_HIT:      20144
  ROW_BUFFER_MISS:      19894
 AVG DBUS CONGESTED CYCLE: 3.981
WQ ROW_BUFFER_HIT: Channel 0 
  ROW_BUFFER_MISS:       2602
  FULL:      35337
