WARNING: physical memory size is smaller than virtual memory size.

*** ChampSim Multicore Out-of-Order Simulator ***
Warmup Instructions: 25000000
Simulation Instructions: 25000000
Number of CPUs: 1
Page size: 4096

Off-chip DRAM Size: 4 GiB Channels: 1 Width: 64-bit Data Race: 800 MT/s
Heartbeat CPU 0 instructions: 10000002 cycles: 2500261 heartbeat IPC: 4 cumulative IPC: 4 (Simulation time: 00 hr 00 min 31 sec)
Heartbeat CPU 0 instructions: 20000002 cycles: 5000261 heartbeat IPC: 4 cumulative IPC: 4 (Simulation time: 00 hr 00 min 59 sec)
Warmup finished CPU 0 instructions: 25000002 cycles: 6254705 cumulative IPC: 3.997 (Simulation time: 00 hr 01 min 15 sec)
Warmup complete CPU 0 instructions: 25000002 cycles: 6254705 cumulative IPC: 3.997 (Simulation time: 00 hr 01 min 15 sec)
Heartbeat CPU 0 instructions: 30000001 cycles: 9825265 heartbeat IPC: 2.073 cumulative IPC: 1.4 (Simulation time: 00 hr 01 min 45 sec)
Heartbeat CPU 0 instructions: 40000003 cycles: 16661092 heartbeat IPC: 1.463 cumulative IPC: 1.441 (Simulation time: 00 hr 02 min 46 sec)
Heartbeat CPU 0 instructions: 50000002 cycles: 23459629 heartbeat IPC: 1.471 cumulative IPC: 1.453 (Simulation time: 00 hr 03 min 45 sec)
Simulation finished CPU 0 instructions: 25000000 cycles: 17204925 cumulative IPC: 1.453 (Simulation time: 00 hr 03 min 45 sec)
Simulation complete CPU 0 instructions: 25000000 cycles: 17204925 cumulative IPC: 1.453 (Simulation time: 00 hr 03 min 45 sec)

ChampSim completed all CPUs

=== Simulation ===
CPU 0 runs ./traces/623.xalancbmk_s-700B.champsimtrace.xz
Region of Interest Statistics

CPU 0 cumulative IPC: 1.453 instructions: 25000000 cycles: 17204925
CPU 0 Branch Prediction Accuracy: 93.12% MPKI: 17.91 Average ROB Occupancy at Mispredict: 21.13
Branch type MPKI
BRANCH_DIRECT_JUMP: 0.182
BRANCH_INDIRECT: 0.594
BRANCH_CONDITIONAL: 14.2
BRANCH_DIRECT_CALL: 0
BRANCH_INDIRECT_CALL: 0.61
BRANCH_RETURN: 2.37

LLC TOTAL        ACCESS:     774085 HIT:     722552 MISS:      51533
LLC LOAD         ACCESS:     542895 HIT:     541459 MISS:       1436
LLC RFO          ACCESS:      48972 HIT:       5371 MISS:      43601
LLC PREFETCH     ACCESS:      94294 HIT:      88269 MISS:       6025
LLC WRITE        ACCESS:      67960 HIT:      67946 MISS:         14
LLC TRANSLATION  ACCESS:      19964 HIT:      19507 MISS:        457
LLC PREFETCH REQUESTED:          0 ISSUED:          0 USEFUL:          0 USELESS:          0
LLC AVERAGE MISS LATENCY: 427.9 cycles
cpu0_DTLB TOTAL        ACCESS:    6802490 HIT:    5920243 MISS:     882247
cpu0_DTLB LOAD         ACCESS:    6802490 HIT:    5920243 MISS:     882247
cpu0_DTLB RFO          ACCESS:          0 HIT:          0 MISS:          0
cpu0_DTLB PREFETCH     ACCESS:          0 HIT:          0 MISS:          0
cpu0_DTLB WRITE        ACCESS:          0 HIT:          0 MISS:          0
cpu0_DTLB TRANSLATION  ACCESS:          0 HIT:          0 MISS:          0
cpu0_DTLB PREFETCH REQUESTED:          0 ISSUED:          0 USEFUL:          0 USELESS:          0
cpu0_DTLB AVERAGE MISS LATENCY: 4.944 cycles
cpu0_ITLB TOTAL        ACCESS:    1519600 HIT:    1481201 MISS:      38399
cpu0_ITLB LOAD         ACCESS:    1519600 HIT:    1481201 MISS:      38399
cpu0_ITLB RFO          ACCESS:          0 HIT:          0 MISS:          0
cpu0_ITLB PREFETCH     ACCESS:          0 HIT:          0 MISS:          0
cpu0_ITLB WRITE        ACCESS:          0 HIT:          0 MISS:          0
cpu0_ITLB TRANSLATION  ACCESS:          0 HIT:          0 MISS:          0
cpu0_ITLB PREFETCH REQUESTED:          0 ISSUED:          0 USEFUL:          0 USELESS:          0
cpu0_ITLB AVERAGE MISS LATENCY: 2.617 cycles
cpu0_L1D TOTAL        ACCESS:   12528388 HIT:    8492204 MISS:    4036184
cpu0_L1D LOAD         ACCESS:    5416060 HIT:    3055931 MISS:    2360129
cpu0_L1D RFO          ACCESS:          0 HIT:          0 MISS:          0
cpu0_L1D PREFETCH     ACCESS:    4302730 HIT:    2895109 MISS:    1407621
cpu0_L1D WRITE        ACCESS:    2777305 HIT:    2540350 MISS:     236955
cpu0_L1D TRANSLATION  ACCESS:      32293 HIT:        814 MISS:      31479
cpu0_L1D PREFETCH REQUESTED:    5897097 ISSUED:    4302730 USEFUL:      79396 USELESS:     161965
cpu0_L1D AVERAGE MISS LATENCY: 12.07 cycles
cpu0_L1I TOTAL        ACCESS:    1659516 HIT:    1507998 MISS:     151518
cpu0_L1I LOAD         ACCESS:    1659516 HIT:    1507998 MISS:     151518
cpu0_L1I RFO          ACCESS:          0 HIT:          0 MISS:          0
cpu0_L1I PREFETCH     ACCESS:          0 HIT:          0 MISS:          0
cpu0_L1I WRITE        ACCESS:          0 HIT:          0 MISS:          0
cpu0_L1I TRANSLATION  ACCESS:          0 HIT:          0 MISS:          0
cpu0_L1I PREFETCH REQUESTED:          0 ISSUED:          0 USEFUL:          0 USELESS:          0
cpu0_L1I AVERAGE MISS LATENCY: 8.401 cycles
cpu0_L2C TOTAL        ACCESS:    2065177 HIT:    1300395 MISS:     764782
cpu0_L2C LOAD         ACCESS:    1253044 HIT:     693809 MISS:     559235
cpu0_L2C RFO          ACCESS:      61775 HIT:      12769 MISS:      49006
cpu0_L2C PREFETCH     ACCESS:     612038 HIT:     475482 MISS:     136556
cpu0_L2C WRITE        ACCESS:     106841 HIT:     106820 MISS:         21
cpu0_L2C TRANSLATION  ACCESS:      31479 HIT:      11515 MISS:      19964
cpu0_L2C PREFETCH REQUESTED:     370764 ISSUED:     370712 USEFUL:      20087 USELESS:       3350
cpu0_L2C AVERAGE MISS LATENCY: 47.05 cycles
cpu0_STLB TOTAL        ACCESS:     545842 HIT:     513599 MISS:      32243
cpu0_STLB LOAD         ACCESS:     545842 HIT:     513599 MISS:      32243
cpu0_STLB RFO          ACCESS:          0 HIT:          0 MISS:          0
cpu0_STLB PREFETCH     ACCESS:          0 HIT:          0 MISS:          0
cpu0_STLB WRITE        ACCESS:          0 HIT:          0 MISS:          0
cpu0_STLB TRANSLATION  ACCESS:          0 HIT:          0 MISS:          0
cpu0_STLB PREFETCH REQUESTED:          0 ISSUED:          0 USEFUL:          0 USELESS:          0
cpu0_STLB AVERAGE MISS LATENCY: 36.91 cycles

DRAM Statistics

Channel 0 RQ ROW_BUFFER_HIT:      25893
  ROW_BUFFER_MISS:      25625
 AVG DBUS CONGESTED CYCLE: 3.972
WQ ROW_BUFFER_HIT: Channel 0 
  ROW_BUFFER_MISS:       2681
  FULL:      39121
