WARNING: physical memory size is smaller than virtual memory size.

*** ChampSim Multicore Out-of-Order Simulator ***
Warmup Instructions: 25000000
Simulation Instructions: 25000000
Number of CPUs: 1
Page size: 4096

Off-chip DRAM Size: 4 GiB Channels: 1 Width: 64-bit Data Race: 800 MT/s
Heartbeat CPU 0 instructions: 10000003 cycles: 2500186 heartbeat IPC: 4 cumulative IPC: 4 (Simulation time: 00 hr 00 min 29 sec)
Heartbeat CPU 0 instructions: 20000003 cycles: 5000186 heartbeat IPC: 4 cumulative IPC: 4 (Simulation time: 00 hr 01 min 00 sec)
Warmup finished CPU 0 instructions: 25000003 cycles: 6253624 cumulative IPC: 3.998 (Simulation time: 00 hr 01 min 17 sec)
Warmup complete CPU 0 instructions: 25000003 cycles: 6253624 cumulative IPC: 3.998 (Simulation time: 00 hr 01 min 17 sec)
Heartbeat CPU 0 instructions: 30000000 cycles: 9263172 heartbeat IPC: 2.346 cumulative IPC: 1.661 (Simulation time: 00 hr 01 min 44 sec)
Heartbeat CPU 0 instructions: 40000001 cycles: 16688196 heartbeat IPC: 1.347 cumulative IPC: 1.438 (Simulation time: 00 hr 02 min 46 sec)
Heartbeat CPU 0 instructions: 50000000 cycles: 23714404 heartbeat IPC: 1.423 cumulative IPC: 1.432 (Simulation time: 00 hr 03 min 47 sec)
Simulation finished CPU 0 instructions: 25000000 cycles: 17460793 cumulative IPC: 1.432 (Simulation time: 00 hr 03 min 47 sec)
Simulation complete CPU 0 instructions: 25000000 cycles: 17460793 cumulative IPC: 1.432 (Simulation time: 00 hr 03 min 47 sec)

ChampSim completed all CPUs

=== Simulation ===
CPU 0 runs ./traces/623.xalancbmk_s-592B.champsimtrace.xz
Region of Interest Statistics

CPU 0 cumulative IPC: 1.432 instructions: 25000000 cycles: 17460793
CPU 0 Branch Prediction Accuracy: 93.12% MPKI: 17.45 Average ROB Occupancy at Mispredict: 21.43
Branch type MPKI
BRANCH_DIRECT_JUMP: 0.18
BRANCH_INDIRECT: 0.561
BRANCH_CONDITIONAL: 13.8
BRANCH_DIRECT_CALL: 0.00256
BRANCH_INDIRECT_CALL: 0.612
BRANCH_RETURN: 2.31

LLC TOTAL        ACCESS:     868983 HIT:     805592 MISS:      63391
LLC LOAD         ACCESS:     608471 HIT:     606600 MISS:       1871
LLC RFO          ACCESS:      61163 HIT:       7443 MISS:      53720
LLC PREFETCH     ACCESS:      91323 HIT:      84936 MISS:       6387
LLC WRITE        ACCESS:      83961 HIT:      83935 MISS:         26
LLC TRANSLATION  ACCESS:      24065 HIT:      22678 MISS:       1387
LLC PREFETCH REQUESTED:          0 ISSUED:          0 USEFUL:          0 USELESS:          0
LLC AVERAGE MISS LATENCY: 463.4 cycles
cpu0_DTLB TOTAL        ACCESS:    6618184 HIT:    5602635 MISS:    1015549
cpu0_DTLB LOAD         ACCESS:    6618184 HIT:    5602635 MISS:    1015549
cpu0_DTLB RFO          ACCESS:          0 HIT:          0 MISS:          0
cpu0_DTLB PREFETCH     ACCESS:          0 HIT:          0 MISS:          0
cpu0_DTLB WRITE        ACCESS:          0 HIT:          0 MISS:          0
cpu0_DTLB TRANSLATION  ACCESS:          0 HIT:          0 MISS:          0
cpu0_DTLB PREFETCH REQUESTED:          0 ISSUED:          0 USEFUL:          0 USELESS:          0
cpu0_DTLB AVERAGE MISS LATENCY: 5.163 cycles
cpu0_ITLB TOTAL        ACCESS:    1456401 HIT:    1418483 MISS:      37918
cpu0_ITLB LOAD         ACCESS:    1456401 HIT:    1418483 MISS:      37918
cpu0_ITLB RFO          ACCESS:          0 HIT:          0 MISS:          0
cpu0_ITLB PREFETCH     ACCESS:          0 HIT:          0 MISS:          0
cpu0_ITLB WRITE        ACCESS:          0 HIT:          0 MISS:          0
cpu0_ITLB TRANSLATION  ACCESS:          0 HIT:          0 MISS:          0
cpu0_ITLB PREFETCH REQUESTED:          0 ISSUED:          0 USEFUL:          0 USELESS:          0
cpu0_ITLB AVERAGE MISS LATENCY: 3.133 cycles
cpu0_L1D TOTAL        ACCESS:   11986630 HIT:    8521683 MISS:    3464947
cpu0_L1D LOAD         ACCESS:    5253098 HIT:    3087053 MISS:    2166045
cpu0_L1D RFO          ACCESS:          0 HIT:          0 MISS:          0
cpu0_L1D PREFETCH     ACCESS:    3887097 HIT:    2897020 MISS:     990077
cpu0_L1D WRITE        ACCESS:    2808874 HIT:    2536618 MISS:     272256
cpu0_L1D TRANSLATION  ACCESS:      37561 HIT:        992 MISS:      36569
cpu0_L1D PREFETCH REQUESTED:    5854079 ISSUED:    3887096 USEFUL:      65453 USELESS:     158338
cpu0_L1D AVERAGE MISS LATENCY: 17.18 cycles
cpu0_L1I TOTAL        ACCESS:    1588775 HIT:    1444478 MISS:     144297
cpu0_L1I LOAD         ACCESS:    1588775 HIT:    1444478 MISS:     144297
cpu0_L1I RFO          ACCESS:          0 HIT:          0 MISS:          0
cpu0_L1I PREFETCH     ACCESS:          0 HIT:          0 MISS:          0
cpu0_L1I WRITE        ACCESS:          0 HIT:          0 MISS:          0
cpu0_L1I TRANSLATION  ACCESS:          0 HIT:          0 MISS:          0
cpu0_L1I PREFETCH REQUESTED:          0 ISSUED:          0 USEFUL:          0 USELESS:          0
cpu0_L1I AVERAGE MISS LATENCY: 8.75 cycles
cpu0_L2C TOTAL        ACCESS:    2069404 HIT:    1248694 MISS:     820710
cpu0_L2C LOAD         ACCESS:    1370557 HIT:     752668 MISS:     617889
cpu0_L2C RFO          ACCESS:      70842 HIT:       9625 MISS:      61217
cpu0_L2C PREFETCH     ACCESS:     476477 HIT:     358948 MISS:     117529
cpu0_L2C WRITE        ACCESS:     114979 HIT:     114969 MISS:         10
cpu0_L2C TRANSLATION  ACCESS:      36549 HIT:      12484 MISS:      24065
cpu0_L2C PREFETCH REQUESTED:     252912 ISSUED:     252761 USEFUL:      13197 USELESS:       3821
cpu0_L2C AVERAGE MISS LATENCY: 54.83 cycles
cpu0_STLB TOTAL        ACCESS:     621096 HIT:     583719 MISS:      37377
cpu0_STLB LOAD         ACCESS:     621096 HIT:     583719 MISS:      37377
cpu0_STLB RFO          ACCESS:          0 HIT:          0 MISS:          0
cpu0_STLB PREFETCH     ACCESS:          0 HIT:          0 MISS:          0
cpu0_STLB WRITE        ACCESS:          0 HIT:          0 MISS:          0
cpu0_STLB TRANSLATION  ACCESS:          0 HIT:          0 MISS:          0
cpu0_STLB PREFETCH REQUESTED:          0 ISSUED:          0 USEFUL:          0 USELESS:          0
cpu0_STLB AVERAGE MISS LATENCY: 43.98 cycles

DRAM Statistics

Channel 0 RQ ROW_BUFFER_HIT:      38448
  ROW_BUFFER_MISS:      24913
 AVG DBUS CONGESTED CYCLE: 3.976
WQ ROW_BUFFER_HIT: Channel 0 
  ROW_BUFFER_MISS:       3297
  FULL:      40803
