WARNING: physical memory size is smaller than virtual memory size.

*** ChampSim Multicore Out-of-Order Simulator ***
Warmup Instructions: 25000000
Simulation Instructions: 25000000
Number of CPUs: 1
Page size: 4096

Off-chip DRAM Size: 4 GiB Channels: 1 Width: 64-bit Data Race: 800 MT/s
Heartbeat CPU 0 instructions: 10000002 cycles: 2558177 heartbeat IPC: 3.909 cumulative IPC: 3.909 (Simulation time: 00 hr 00 min 25 sec)
Heartbeat CPU 0 instructions: 20000003 cycles: 5121606 heartbeat IPC: 3.901 cumulative IPC: 3.905 (Simulation time: 00 hr 00 min 49 sec)
Warmup finished CPU 0 instructions: 25000001 cycles: 6398075 cumulative IPC: 3.907 (Simulation time: 00 hr 01 min 02 sec)
Warmup complete CPU 0 instructions: 25000001 cycles: 6398075 cumulative IPC: 3.907 (Simulation time: 00 hr 01 min 02 sec)
Heartbeat CPU 0 instructions: 30000001 cycles: 10107164 heartbeat IPC: 2.006 cumulative IPC: 1.348 (Simulation time: 00 hr 01 min 29 sec)
Heartbeat CPU 0 instructions: 40000000 cycles: 16357924 heartbeat IPC: 1.6 cumulative IPC: 1.506 (Simulation time: 00 hr 02 min 18 sec)
Heartbeat CPU 0 instructions: 50000003 cycles: 23176426 heartbeat IPC: 1.467 cumulative IPC: 1.49 (Simulation time: 00 hr 03 min 10 sec)
Simulation finished CPU 0 instructions: 25000002 cycles: 16778352 cumulative IPC: 1.49 (Simulation time: 00 hr 03 min 10 sec)
Simulation complete CPU 0 instructions: 25000002 cycles: 16778352 cumulative IPC: 1.49 (Simulation time: 00 hr 03 min 10 sec)

ChampSim completed all CPUs

=== Simulation ===
CPU 0 runs ./traces/627.cam4_s-490B.champsimtrace.xz
Region of Interest Statistics

CPU 0 cumulative IPC: 1.49 instructions: 25000002 cycles: 16778352
CPU 0 Branch Prediction Accuracy: 90.28% MPKI: 9.288 Average ROB Occupancy at Mispredict: 32.39
Branch type MPKI
BRANCH_DIRECT_JUMP: 0.00504
BRANCH_INDIRECT: 0
BRANCH_CONDITIONAL: 9.28
BRANCH_DIRECT_CALL: 0
BRANCH_INDIRECT_CALL: 0
BRANCH_RETURN: 0

LLC TOTAL        ACCESS:     608695 HIT:     496686 MISS:     112009
LLC LOAD         ACCESS:      73750 HIT:      58679 MISS:      15071
LLC RFO          ACCESS:     128228 HIT:      78596 MISS:      49632
LLC PREFETCH     ACCESS:     230190 HIT:     183951 MISS:      46239
LLC WRITE        ACCESS:     176496 HIT:     175458 MISS:       1038
LLC TRANSLATION  ACCESS:         31 HIT:          2 MISS:         29
LLC PREFETCH REQUESTED:          0 ISSUED:          0 USEFUL:          0 USELESS:          0
LLC AVERAGE MISS LATENCY: 928.8 cycles
cpu0_DTLB TOTAL        ACCESS:    4084919 HIT:    4062452 MISS:      22467
cpu0_DTLB LOAD         ACCESS:    4084919 HIT:    4062452 MISS:      22467
cpu0_DTLB RFO          ACCESS:          0 HIT:          0 MISS:          0
cpu0_DTLB PREFETCH     ACCESS:          0 HIT:          0 MISS:          0
cpu0_DTLB WRITE        ACCESS:          0 HIT:          0 MISS:          0
cpu0_DTLB TRANSLATION  ACCESS:          0 HIT:          0 MISS:          0
cpu0_DTLB PREFETCH REQUESTED:          0 ISSUED:          0 USEFUL:          0 USELESS:          0
cpu0_DTLB AVERAGE MISS LATENCY: 4.759 cycles
cpu0_ITLB TOTAL        ACCESS:       4590 HIT:       4590 MISS:          0
cpu0_ITLB LOAD         ACCESS:       4590 HIT:       4590 MISS:          0
cpu0_ITLB RFO          ACCESS:          0 HIT:          0 MISS:          0
cpu0_ITLB PREFETCH     ACCESS:          0 HIT:          0 MISS:          0
cpu0_ITLB WRITE        ACCESS:          0 HIT:          0 MISS:          0
cpu0_ITLB TRANSLATION  ACCESS:          0 HIT:          0 MISS:          0
cpu0_ITLB PREFETCH REQUESTED:          0 ISSUED:          0 USEFUL:          0 USELESS:          0
cpu0_ITLB AVERAGE MISS LATENCY: -nan cycles
cpu0_L1D TOTAL        ACCESS:    7053341 HIT:    5075391 MISS:    1977950
cpu0_L1D LOAD         ACCESS:    3236007 HIT:    2541569 MISS:     694438
cpu0_L1D RFO          ACCESS:          0 HIT:          0 MISS:          0
cpu0_L1D PREFETCH     ACCESS:    2180187 HIT:    1651802 MISS:     528385
cpu0_L1D WRITE        ACCESS:    1636683 HIT:     881621 MISS:     755062
cpu0_L1D TRANSLATION  ACCESS:        464 HIT:        399 MISS:         65
cpu0_L1D PREFETCH REQUESTED:    4411103 ISSUED:    2180184 USEFUL:     149423 USELESS:       3087
cpu0_L1D AVERAGE MISS LATENCY: 48.07 cycles
cpu0_L1I TOTAL        ACCESS:       5690 HIT:       4520 MISS:       1170
cpu0_L1I LOAD         ACCESS:       5690 HIT:       4520 MISS:       1170
cpu0_L1I RFO          ACCESS:          0 HIT:          0 MISS:          0
cpu0_L1I PREFETCH     ACCESS:          0 HIT:          0 MISS:          0
cpu0_L1I WRITE        ACCESS:          0 HIT:          0 MISS:          0
cpu0_L1I TRANSLATION  ACCESS:          0 HIT:          0 MISS:          0
cpu0_L1I PREFETCH REQUESTED:          0 ISSUED:          0 USEFUL:          0 USELESS:          0
cpu0_L1I AVERAGE MISS LATENCY: 245 cycles
cpu0_L2C TOTAL        ACCESS:     959917 HIT:     404275 MISS:     555642
cpu0_L2C LOAD         ACCESS:     165042 HIT:      64128 MISS:     100914
cpu0_L2C RFO          ACCESS:     130206 HIT:       1978 MISS:     128228
cpu0_L2C PREFETCH     ACCESS:     476751 HIT:     150850 MISS:     325901
cpu0_L2C WRITE        ACCESS:     187853 HIT:     187285 MISS:        568
cpu0_L2C TRANSLATION  ACCESS:         65 HIT:         34 MISS:         31
cpu0_L2C PREFETCH REQUESTED:     333489 ISSUED:     324226 USEFUL:      90295 USELESS:       8069
cpu0_L2C AVERAGE MISS LATENCY: 196.6 cycles
cpu0_STLB TOTAL        ACCESS:       7769 HIT:       7305 MISS:        464
cpu0_STLB LOAD         ACCESS:       7769 HIT:       7305 MISS:        464
cpu0_STLB RFO          ACCESS:          0 HIT:          0 MISS:          0
cpu0_STLB PREFETCH     ACCESS:          0 HIT:          0 MISS:          0
cpu0_STLB WRITE        ACCESS:          0 HIT:          0 MISS:          0
cpu0_STLB TRANSLATION  ACCESS:          0 HIT:          0 MISS:          0
cpu0_STLB PREFETCH REQUESTED:          0 ISSUED:          0 USEFUL:          0 USELESS:          0
cpu0_STLB AVERAGE MISS LATENCY: 299.5 cycles

DRAM Statistics

Channel 0 RQ ROW_BUFFER_HIT:      36697
  ROW_BUFFER_MISS:      63318
 AVG DBUS CONGESTED CYCLE: 3.954
WQ ROW_BUFFER_HIT: Channel 0 
  ROW_BUFFER_MISS:       6311
  FULL:      63077
