WARNING: physical memory size is smaller than virtual memory size.

*** ChampSim Multicore Out-of-Order Simulator ***
Warmup Instructions: 25000000
Simulation Instructions: 25000000
Number of CPUs: 1
Page size: 4096

Off-chip DRAM Size: 4 GiB Channels: 1 Width: 64-bit Data Race: 800 MT/s
Heartbeat CPU 0 instructions: 10000002 cycles: 2568794 heartbeat IPC: 3.893 cumulative IPC: 3.893 (Simulation time: 00 hr 00 min 26 sec)
Heartbeat CPU 0 instructions: 20000003 cycles: 5137393 heartbeat IPC: 3.893 cumulative IPC: 3.893 (Simulation time: 00 hr 00 min 52 sec)
Warmup finished CPU 0 instructions: 25000002 cycles: 6421643 cumulative IPC: 3.893 (Simulation time: 00 hr 01 min 05 sec)
Warmup complete CPU 0 instructions: 25000002 cycles: 6421643 cumulative IPC: 3.893 (Simulation time: 00 hr 01 min 05 sec)
Heartbeat CPU 0 instructions: 30000000 cycles: 8726709 heartbeat IPC: 2.786 cumulative IPC: 2.169 (Simulation time: 00 hr 01 min 26 sec)
Heartbeat CPU 0 instructions: 40000002 cycles: 13346329 heartbeat IPC: 2.165 cumulative IPC: 2.166 (Simulation time: 00 hr 02 min 08 sec)
Heartbeat CPU 0 instructions: 50000001 cycles: 17853732 heartbeat IPC: 2.219 cumulative IPC: 2.187 (Simulation time: 00 hr 02 min 50 sec)
Simulation finished CPU 0 instructions: 25000003 cycles: 11432091 cumulative IPC: 2.187 (Simulation time: 00 hr 02 min 50 sec)
Simulation complete CPU 0 instructions: 25000003 cycles: 11432091 cumulative IPC: 2.187 (Simulation time: 00 hr 02 min 50 sec)

ChampSim completed all CPUs

=== Simulation ===
CPU 0 runs ./traces/628.pop2_s-17B.champsimtrace.xz
Region of Interest Statistics

CPU 0 cumulative IPC: 2.187 instructions: 25000003 cycles: 11432091
CPU 0 Branch Prediction Accuracy: 96.47% MPKI: 4.044 Average ROB Occupancy at Mispredict: 109.7
Branch type MPKI
BRANCH_DIRECT_JUMP: 0.0513
BRANCH_INDIRECT: 0.00164
BRANCH_CONDITIONAL: 3.99
BRANCH_DIRECT_CALL: 0
BRANCH_INDIRECT_CALL: 0
BRANCH_RETURN: 0

LLC TOTAL        ACCESS:     464508 HIT:     386227 MISS:      78281
LLC LOAD         ACCESS:      90016 HIT:      78372 MISS:      11644
LLC RFO          ACCESS:      85600 HIT:      80274 MISS:       5326
LLC PREFETCH     ACCESS:     158120 HIT:      97775 MISS:      60345
LLC WRITE        ACCESS:     129305 HIT:     129267 MISS:         38
LLC TRANSLATION  ACCESS:       1467 HIT:        539 MISS:        928
LLC PREFETCH REQUESTED:          0 ISSUED:          0 USEFUL:          0 USELESS:          0
LLC AVERAGE MISS LATENCY: 428.1 cycles
cpu0_DTLB TOTAL        ACCESS:    5450998 HIT:    5400493 MISS:      50505
cpu0_DTLB LOAD         ACCESS:    5450998 HIT:    5400493 MISS:      50505
cpu0_DTLB RFO          ACCESS:          0 HIT:          0 MISS:          0
cpu0_DTLB PREFETCH     ACCESS:          0 HIT:          0 MISS:          0
cpu0_DTLB WRITE        ACCESS:          0 HIT:          0 MISS:          0
cpu0_DTLB TRANSLATION  ACCESS:          0 HIT:          0 MISS:          0
cpu0_DTLB PREFETCH REQUESTED:          0 ISSUED:          0 USEFUL:          0 USELESS:          0
cpu0_DTLB AVERAGE MISS LATENCY: 13.16 cycles
cpu0_ITLB TOTAL        ACCESS:      92888 HIT:      89074 MISS:       3814
cpu0_ITLB LOAD         ACCESS:      92888 HIT:      89074 MISS:       3814
cpu0_ITLB RFO          ACCESS:          0 HIT:          0 MISS:          0
cpu0_ITLB PREFETCH     ACCESS:          0 HIT:          0 MISS:          0
cpu0_ITLB WRITE        ACCESS:          0 HIT:          0 MISS:          0
cpu0_ITLB TRANSLATION  ACCESS:          0 HIT:          0 MISS:          0
cpu0_ITLB PREFETCH REQUESTED:          0 ISSUED:          0 USEFUL:          0 USELESS:          0
cpu0_ITLB AVERAGE MISS LATENCY: 1.382 cycles
cpu0_L1D TOTAL        ACCESS:    8786019 HIT:    6577638 MISS:    2208381
cpu0_L1D LOAD         ACCESS:    4554331 HIT:    3621194 MISS:     933137
cpu0_L1D RFO          ACCESS:          0 HIT:          0 MISS:          0
cpu0_L1D PREFETCH     ACCESS:    2339637 HIT:    1688652 MISS:     650985
cpu0_L1D WRITE        ACCESS:    1890363 HIT:    1267733 MISS:     622630
cpu0_L1D TRANSLATION  ACCESS:       1688 HIT:         59 MISS:       1629
cpu0_L1D PREFETCH REQUESTED:    4635439 ISSUED:    2339637 USEFUL:     196343 USELESS:      35155
cpu0_L1D AVERAGE MISS LATENCY: 12.8 cycles
cpu0_L1I TOTAL        ACCESS:     115394 HIT:      58030 MISS:      57364
cpu0_L1I LOAD         ACCESS:     115394 HIT:      58030 MISS:      57364
cpu0_L1I RFO          ACCESS:          0 HIT:          0 MISS:          0
cpu0_L1I PREFETCH     ACCESS:          0 HIT:          0 MISS:          0
cpu0_L1I WRITE        ACCESS:          0 HIT:          0 MISS:          0
cpu0_L1I TRANSLATION  ACCESS:          0 HIT:          0 MISS:          0
cpu0_L1I PREFETCH REQUESTED:          0 ISSUED:          0 USEFUL:          0 USELESS:          0
cpu0_L1I AVERAGE MISS LATENCY: 14.25 cycles
cpu0_L2C TOTAL        ACCESS:    1324108 HIT:     916066 MISS:     408042
cpu0_L2C LOAD         ACCESS:     298585 HIT:     198305 MISS:     100280
cpu0_L2C RFO          ACCESS:     162594 HIT:      76994 MISS:      85600
cpu0_L2C PREFETCH     ACCESS:     624921 HIT:     404327 MISS:     220594
cpu0_L2C WRITE        ACCESS:     236428 HIT:     236327 MISS:        101
cpu0_L2C TRANSLATION  ACCESS:       1580 HIT:        113 MISS:       1467
cpu0_L2C PREFETCH REQUESTED:     393431 ISSUED:     393428 USEFUL:      53681 USELESS:      12758
cpu0_L2C AVERAGE MISS LATENCY: 97.64 cycles
cpu0_STLB TOTAL        ACCESS:      21948 HIT:      20725 MISS:       1223
cpu0_STLB LOAD         ACCESS:      21948 HIT:      20725 MISS:       1223
cpu0_STLB RFO          ACCESS:          0 HIT:          0 MISS:          0
cpu0_STLB PREFETCH     ACCESS:          0 HIT:          0 MISS:          0
cpu0_STLB WRITE        ACCESS:          0 HIT:          0 MISS:          0
cpu0_STLB TRANSLATION  ACCESS:          0 HIT:          0 MISS:          0
cpu0_STLB PREFETCH REQUESTED:          0 ISSUED:          0 USEFUL:          0 USELESS:          0
cpu0_STLB AVERAGE MISS LATENCY: 599.6 cycles

DRAM Statistics

Channel 0 RQ ROW_BUFFER_HIT:      43520
  ROW_BUFFER_MISS:      34165
 AVG DBUS CONGESTED CYCLE: 3.921
WQ ROW_BUFFER_HIT: Channel 0 
  ROW_BUFFER_MISS:       1840
  FULL:      20276
