WARNING: physical memory size is smaller than virtual memory size.

*** ChampSim Multicore Out-of-Order Simulator ***
Warmup Instructions: 25000000
Simulation Instructions: 25000000
Number of CPUs: 1
Page size: 4096

Off-chip DRAM Size: 4 GiB Channels: 1 Width: 64-bit Data Race: 800 MT/s
Heartbeat CPU 0 instructions: 10000002 cycles: 2500102 heartbeat IPC: 4 cumulative IPC: 4 (Simulation time: 00 hr 00 min 28 sec)
Heartbeat CPU 0 instructions: 20000002 cycles: 5000102 heartbeat IPC: 4 cumulative IPC: 4 (Simulation time: 00 hr 00 min 56 sec)
Warmup finished CPU 0 instructions: 25000002 cycles: 6250103 cumulative IPC: 4 (Simulation time: 00 hr 01 min 10 sec)
Warmup complete CPU 0 instructions: 25000002 cycles: 6250103 cumulative IPC: 4 (Simulation time: 00 hr 01 min 10 sec)
Heartbeat CPU 0 instructions: 30000003 cycles: 11717322 heartbeat IPC: 1.489 cumulative IPC: 0.9145 (Simulation time: 00 hr 01 min 53 sec)
Heartbeat CPU 0 instructions: 40000001 cycles: 22633820 heartbeat IPC: 0.916 cumulative IPC: 0.9155 (Simulation time: 00 hr 03 min 20 sec)
Heartbeat CPU 0 instructions: 50000001 cycles: 33541880 heartbeat IPC: 0.9168 cumulative IPC: 0.916 (Simulation time: 00 hr 04 min 49 sec)
Simulation finished CPU 0 instructions: 25000003 cycles: 27291779 cumulative IPC: 0.916 (Simulation time: 00 hr 04 min 49 sec)
Simulation complete CPU 0 instructions: 25000003 cycles: 27291779 cumulative IPC: 0.916 (Simulation time: 00 hr 04 min 49 sec)

ChampSim completed all CPUs

=== Simulation ===
CPU 0 runs ./traces/649.fotonik3d_s-1176B.champsimtrace.xz
Region of Interest Statistics

CPU 0 cumulative IPC: 0.916 instructions: 25000003 cycles: 27291779
CPU 0 Branch Prediction Accuracy: 99.97% MPKI: 0.0044 Average ROB Occupancy at Mispredict: 352
Branch type MPKI
BRANCH_DIRECT_JUMP: 0
BRANCH_INDIRECT: 0
BRANCH_CONDITIONAL: 0.0044
BRANCH_DIRECT_CALL: 0
BRANCH_INDIRECT_CALL: 0
BRANCH_RETURN: 0

LLC TOTAL        ACCESS:     552709 HIT:     330485 MISS:     222224
LLC LOAD         ACCESS:      54602 HIT:       3221 MISS:      51381
LLC RFO          ACCESS:        330 HIT:        330 MISS:          0
LLC PREFETCH     ACCESS:     278180 HIT:     110257 MISS:     167923
LLC WRITE        ACCESS:     219451 HIT:     216566 MISS:       2885
LLC TRANSLATION  ACCESS:        146 HIT:        111 MISS:         35
LLC PREFETCH REQUESTED:          0 ISSUED:          0 USEFUL:          0 USELESS:          0
LLC AVERAGE MISS LATENCY: 509 cycles
cpu0_DTLB TOTAL        ACCESS:    5846644 HIT:    5815178 MISS:      31466
cpu0_DTLB LOAD         ACCESS:    5846644 HIT:    5815178 MISS:      31466
cpu0_DTLB RFO          ACCESS:          0 HIT:          0 MISS:          0
cpu0_DTLB PREFETCH     ACCESS:          0 HIT:          0 MISS:          0
cpu0_DTLB WRITE        ACCESS:          0 HIT:          0 MISS:          0
cpu0_DTLB TRANSLATION  ACCESS:          0 HIT:          0 MISS:          0
cpu0_DTLB PREFETCH REQUESTED:          0 ISSUED:          0 USEFUL:          0 USELESS:          0
cpu0_DTLB AVERAGE MISS LATENCY: 13.57 cycles
cpu0_ITLB TOTAL        ACCESS:          0 HIT:          0 MISS:          0
cpu0_ITLB LOAD         ACCESS:          0 HIT:          0 MISS:          0
cpu0_ITLB RFO          ACCESS:          0 HIT:          0 MISS:          0
cpu0_ITLB PREFETCH     ACCESS:          0 HIT:          0 MISS:          0
cpu0_ITLB WRITE        ACCESS:          0 HIT:          0 MISS:          0
cpu0_ITLB TRANSLATION  ACCESS:          0 HIT:          0 MISS:          0
cpu0_ITLB PREFETCH REQUESTED:          0 ISSUED:          0 USEFUL:          0 USELESS:          0
cpu0_ITLB AVERAGE MISS LATENCY: -nan cycles
cpu0_L1D TOTAL        ACCESS:   12060306 HIT:   10201665 MISS:    1858641
cpu0_L1D LOAD         ACCESS:    6241175 HIT:    5144097 MISS:    1097078
cpu0_L1D RFO          ACCESS:          0 HIT:          0 MISS:          0
cpu0_L1D PREFETCH     ACCESS:    4060536 HIT:    3300538 MISS:     759998
cpu0_L1D WRITE        ACCESS:    1755140 HIT:    1753724 MISS:       1416
cpu0_L1D TRANSLATION  ACCESS:       3455 HIT:       3306 MISS:        149
cpu0_L1D PREFETCH REQUESTED:    6241278 ISSUED:    4060536 USEFUL:     273596 USELESS:       2945
cpu0_L1D AVERAGE MISS LATENCY: 39.58 cycles
cpu0_L1I TOTAL        ACCESS:          0 HIT:          0 MISS:          0
cpu0_L1I LOAD         ACCESS:          0 HIT:          0 MISS:          0
cpu0_L1I RFO          ACCESS:          0 HIT:          0 MISS:          0
cpu0_L1I PREFETCH     ACCESS:          0 HIT:          0 MISS:          0
cpu0_L1I WRITE        ACCESS:          0 HIT:          0 MISS:          0
cpu0_L1I TRANSLATION  ACCESS:          0 HIT:          0 MISS:          0
cpu0_L1I PREFETCH REQUESTED:          0 ISSUED:          0 USEFUL:          0 USELESS:          0
cpu0_L1I AVERAGE MISS LATENCY: -nan cycles
cpu0_L2C TOTAL        ACCESS:     567563 HIT:     222792 MISS:     344771
cpu0_L2C LOAD         ACCESS:      56870 HIT:        453 MISS:      56417
cpu0_L2C RFO          ACCESS:        330 HIT:          0 MISS:        330
cpu0_L2C PREFETCH     ACCESS:     290563 HIT:       2685 MISS:     287878
cpu0_L2C WRITE        ACCESS:     219654 HIT:     219654 MISS:          0
cpu0_L2C TRANSLATION  ACCESS:        146 HIT:          0 MISS:        146
cpu0_L2C PREFETCH REQUESTED:      14005 ISSUED:      14005 USEFUL:       9852 USELESS:         69
cpu0_L2C AVERAGE MISS LATENCY: 347.8 cycles
cpu0_STLB TOTAL        ACCESS:       5797 HIT:       2361 MISS:       3436
cpu0_STLB LOAD         ACCESS:       5797 HIT:       2361 MISS:       3436
cpu0_STLB RFO          ACCESS:          0 HIT:          0 MISS:          0
cpu0_STLB PREFETCH     ACCESS:          0 HIT:          0 MISS:          0
cpu0_STLB WRITE        ACCESS:          0 HIT:          0 MISS:          0
cpu0_STLB TRANSLATION  ACCESS:          0 HIT:          0 MISS:          0
cpu0_STLB PREFETCH REQUESTED:          0 ISSUED:          0 USEFUL:          0 USELESS:          0
cpu0_STLB AVERAGE MISS LATENCY: 217.7 cycles

DRAM Statistics

Channel 0 RQ ROW_BUFFER_HIT:      43258
  ROW_BUFFER_MISS:     176079
 AVG DBUS CONGESTED CYCLE: 3.936
WQ ROW_BUFFER_HIT: Channel 0 
  ROW_BUFFER_MISS:      46213
  FULL:     172874
