WARNING: physical memory size is smaller than virtual memory size.

*** ChampSim Multicore Out-of-Order Simulator ***
Warmup Instructions: 25000000
Simulation Instructions: 25000000
Number of CPUs: 1
Page size: 4096

Off-chip DRAM Size: 4 GiB Channels: 1 Width: 64-bit Data Race: 800 MT/s
Heartbeat CPU 0 instructions: 10000000 cycles: 2500090 heartbeat IPC: 4 cumulative IPC: 4 (Simulation time: 00 hr 00 min 29 sec)
Heartbeat CPU 0 instructions: 20000000 cycles: 5000090 heartbeat IPC: 4 cumulative IPC: 4 (Simulation time: 00 hr 01 min 01 sec)
Warmup finished CPU 0 instructions: 25000000 cycles: 6250091 cumulative IPC: 4 (Simulation time: 00 hr 01 min 16 sec)
Warmup complete CPU 0 instructions: 25000000 cycles: 6250091 cumulative IPC: 4 (Simulation time: 00 hr 01 min 16 sec)
Heartbeat CPU 0 instructions: 30000000 cycles: 7928373 heartbeat IPC: 3.415 cumulative IPC: 2.979 (Simulation time: 00 hr 01 min 34 sec)
Heartbeat CPU 0 instructions: 40000001 cycles: 11271488 heartbeat IPC: 2.991 cumulative IPC: 2.987 (Simulation time: 00 hr 02 min 10 sec)
Heartbeat CPU 0 instructions: 50000003 cycles: 34427949 heartbeat IPC: 0.4318 cumulative IPC: 0.8872 (Simulation time: 00 hr 05 min 02 sec)
Simulation finished CPU 0 instructions: 25000003 cycles: 28177859 cumulative IPC: 0.8872 (Simulation time: 00 hr 05 min 02 sec)
Simulation complete CPU 0 instructions: 25000003 cycles: 28177859 cumulative IPC: 0.8872 (Simulation time: 00 hr 05 min 02 sec)

ChampSim completed all CPUs

=== Simulation ===
CPU 0 runs ./traces/654.roms_s-1007B.champsimtrace.xz
Region of Interest Statistics

CPU 0 cumulative IPC: 0.8872 instructions: 25000003 cycles: 28177859
CPU 0 Branch Prediction Accuracy: 86.84% MPKI: 12.49 Average ROB Occupancy at Mispredict: 67.98
Branch type MPKI
BRANCH_DIRECT_JUMP: 0.00016
BRANCH_INDIRECT: 0
BRANCH_CONDITIONAL: 6.26
BRANCH_DIRECT_CALL: 8e-05
BRANCH_INDIRECT_CALL: 0
BRANCH_RETURN: 6.23

LLC TOTAL        ACCESS:     331548 HIT:      84345 MISS:     247203
LLC LOAD         ACCESS:      41160 HIT:        453 MISS:      40707
LLC RFO          ACCESS:      82310 HIT:          0 MISS:      82310
LLC PREFETCH     ACCESS:     123796 HIT:       1300 MISS:     122496
LLC WRITE        ACCESS:      82774 HIT:      82567 MISS:        207
LLC TRANSLATION  ACCESS:       1508 HIT:         25 MISS:       1483
LLC PREFETCH REQUESTED:          0 ISSUED:          0 USEFUL:          0 USELESS:          0
LLC AVERAGE MISS LATENCY: 1285 cycles
cpu0_DTLB TOTAL        ACCESS:    5474313 HIT:    5436895 MISS:      37418
cpu0_DTLB LOAD         ACCESS:    5474313 HIT:    5436895 MISS:      37418
cpu0_DTLB RFO          ACCESS:          0 HIT:          0 MISS:          0
cpu0_DTLB PREFETCH     ACCESS:          0 HIT:          0 MISS:          0
cpu0_DTLB WRITE        ACCESS:          0 HIT:          0 MISS:          0
cpu0_DTLB TRANSLATION  ACCESS:          0 HIT:          0 MISS:          0
cpu0_DTLB PREFETCH REQUESTED:          0 ISSUED:          0 USEFUL:          0 USELESS:          0
cpu0_DTLB AVERAGE MISS LATENCY: 43.47 cycles
cpu0_ITLB TOTAL        ACCESS:         32 HIT:         20 MISS:         12
cpu0_ITLB LOAD         ACCESS:         32 HIT:         20 MISS:         12
cpu0_ITLB RFO          ACCESS:          0 HIT:          0 MISS:          0
cpu0_ITLB PREFETCH     ACCESS:          0 HIT:          0 MISS:          0
cpu0_ITLB WRITE        ACCESS:          0 HIT:          0 MISS:          0
cpu0_ITLB TRANSLATION  ACCESS:          0 HIT:          0 MISS:          0
cpu0_ITLB PREFETCH REQUESTED:          0 ISSUED:          0 USEFUL:          0 USELESS:          0
cpu0_ITLB AVERAGE MISS LATENCY: 151.4 cycles
cpu0_L1D TOTAL        ACCESS:   10446097 HIT:    8955283 MISS:    1490814
cpu0_L1D LOAD         ACCESS:    4196550 HIT:    3621724 MISS:     574826
cpu0_L1D RFO          ACCESS:          0 HIT:          0 MISS:          0
cpu0_L1D PREFETCH     ACCESS:    3333469 HIT:    3004250 MISS:     329219
cpu0_L1D WRITE        ACCESS:    2910276 HIT:    2329218 MISS:     581058
cpu0_L1D TRANSLATION  ACCESS:       5802 HIT:         91 MISS:       5711
cpu0_L1D PREFETCH REQUESTED:    5090689 ISSUED:    3333476 USEFUL:     115742 USELESS:       3769
cpu0_L1D AVERAGE MISS LATENCY: 112.5 cycles
cpu0_L1I TOTAL        ACCESS:         42 HIT:          7 MISS:         35
cpu0_L1I LOAD         ACCESS:         42 HIT:          7 MISS:         35
cpu0_L1I RFO          ACCESS:          0 HIT:          0 MISS:          0
cpu0_L1I PREFETCH     ACCESS:          0 HIT:          0 MISS:          0
cpu0_L1I WRITE        ACCESS:          0 HIT:          0 MISS:          0
cpu0_L1I TRANSLATION  ACCESS:          0 HIT:          0 MISS:          0
cpu0_L1I PREFETCH REQUESTED:          0 ISSUED:          0 USEFUL:          0 USELESS:          0
cpu0_L1I AVERAGE MISS LATENCY: 220.1 cycles
cpu0_L2C TOTAL        ACCESS:     377497 HIT:     125256 MISS:     252241
cpu0_L2C LOAD         ACCESS:      47065 HIT:       5174 MISS:      41891
cpu0_L2C RFO          ACCESS:      82418 HIT:        106 MISS:      82312
cpu0_L2C PREFETCH     ACCESS:     158277 HIT:      31976 MISS:     126301
cpu0_L2C WRITE        ACCESS:      84026 HIT:      83797 MISS:        229
cpu0_L2C TRANSLATION  ACCESS:       5711 HIT:       4203 MISS:       1508
cpu0_L2C PREFETCH REQUESTED:      38779 ISSUED:      38779 USEFUL:      16553 USELESS:       2402
cpu0_L2C AVERAGE MISS LATENCY: 1265 cycles
cpu0_STLB TOTAL        ACCESS:       6104 HIT:        333 MISS:       5771
cpu0_STLB LOAD         ACCESS:       6104 HIT:        333 MISS:       5771
cpu0_STLB RFO          ACCESS:          0 HIT:          0 MISS:          0
cpu0_STLB PREFETCH     ACCESS:          0 HIT:          0 MISS:          0
cpu0_STLB WRITE        ACCESS:          0 HIT:          0 MISS:          0
cpu0_STLB TRANSLATION  ACCESS:          0 HIT:          0 MISS:          0
cpu0_STLB PREFETCH REQUESTED:          0 ISSUED:          0 USEFUL:          0 USELESS:          0
cpu0_STLB AVERAGE MISS LATENCY: 573.1 cycles

DRAM Statistics

Channel 0 RQ ROW_BUFFER_HIT:     120553
  ROW_BUFFER_MISS:     126113
 AVG DBUS CONGESTED CYCLE: 3.882
WQ ROW_BUFFER_HIT: Channel 0 
  ROW_BUFFER_MISS:       3930
  FULL:      79819
