WARNING: physical memory size is smaller than virtual memory size.

*** ChampSim Multicore Out-of-Order Simulator ***
Warmup Instructions: 25000000
Simulation Instructions: 25000000
Number of CPUs: 1
Page size: 4096

Off-chip DRAM Size: 4 GiB Channels: 1 Width: 64-bit Data Race: 800 MT/s
Heartbeat CPU 0 instructions: 10000002 cycles: 2858368 heartbeat IPC: 3.499 cumulative IPC: 3.499 (Simulation time: 00 hr 00 min 35 sec)
Heartbeat CPU 0 instructions: 20000002 cycles: 5502803 heartbeat IPC: 3.782 cumulative IPC: 3.635 (Simulation time: 00 hr 01 min 06 sec)
Warmup finished CPU 0 instructions: 25000002 cycles: 6752804 cumulative IPC: 3.702 (Simulation time: 00 hr 01 min 20 sec)
Warmup complete CPU 0 instructions: 25000002 cycles: 6752804 cumulative IPC: 3.702 (Simulation time: 00 hr 01 min 20 sec)
Heartbeat CPU 0 instructions: 30000002 cycles: 23837512 heartbeat IPC: 0.5454 cumulative IPC: 0.2927 (Simulation time: 00 hr 03 min 16 sec)
Heartbeat CPU 0 instructions: 40000001 cycles: 71395179 heartbeat IPC: 0.2103 cumulative IPC: 0.232 (Simulation time: 00 hr 07 min 58 sec)
Heartbeat CPU 0 instructions: 50000003 cycles: 123474782 heartbeat IPC: 0.192 cumulative IPC: 0.2142 (Simulation time: 00 hr 11 min 38 sec)
Simulation finished CPU 0 instructions: 25000001 cycles: 116721979 cumulative IPC: 0.2142 (Simulation time: 00 hr 11 min 38 sec)
Simulation complete CPU 0 instructions: 25000001 cycles: 116721979 cumulative IPC: 0.2142 (Simulation time: 00 hr 11 min 38 sec)

ChampSim completed all CPUs

=== Simulation ===
CPU 0 runs ./traces/654.roms_s-1390B.champsimtrace.xz
Region of Interest Statistics

CPU 0 cumulative IPC: 0.2142 instructions: 25000001 cycles: 116721979
CPU 0 Branch Prediction Accuracy: 99.8% MPKI: 0.1142 Average ROB Occupancy at Mispredict: 350.8
Branch type MPKI
BRANCH_DIRECT_JUMP: 4e-05
BRANCH_INDIRECT: 0
BRANCH_CONDITIONAL: 0.114
BRANCH_DIRECT_CALL: 0
BRANCH_INDIRECT_CALL: 0
BRANCH_RETURN: 0

LLC TOTAL        ACCESS:    1442608 HIT:     464091 MISS:     978517
LLC LOAD         ACCESS:     191308 HIT:       4245 MISS:     187063
LLC RFO          ACCESS:     282809 HIT:          0 MISS:     282809
LLC PREFETCH     ACCESS:     514018 HIT:      10804 MISS:     503214
LLC WRITE        ACCESS:     448339 HIT:     447958 MISS:        381
LLC TRANSLATION  ACCESS:       6134 HIT:       1084 MISS:       5050
LLC PREFETCH REQUESTED:          0 ISSUED:          0 USEFUL:          0 USELESS:          0
LLC AVERAGE MISS LATENCY: 1650 cycles
cpu0_DTLB TOTAL        ACCESS:    7065189 HIT:    6944846 MISS:     120343
cpu0_DTLB LOAD         ACCESS:    7065189 HIT:    6944846 MISS:     120343
cpu0_DTLB RFO          ACCESS:          0 HIT:          0 MISS:          0
cpu0_DTLB PREFETCH     ACCESS:          0 HIT:          0 MISS:          0
cpu0_DTLB WRITE        ACCESS:          0 HIT:          0 MISS:          0
cpu0_DTLB TRANSLATION  ACCESS:          0 HIT:          0 MISS:          0
cpu0_DTLB PREFETCH REQUESTED:          0 ISSUED:          0 USEFUL:          0 USELESS:          0
cpu0_DTLB AVERAGE MISS LATENCY: 65.83 cycles
cpu0_ITLB TOTAL        ACCESS:         97 HIT:         78 MISS:         19
cpu0_ITLB LOAD         ACCESS:         97 HIT:         78 MISS:         19
cpu0_ITLB RFO          ACCESS:          0 HIT:          0 MISS:          0
cpu0_ITLB PREFETCH     ACCESS:          0 HIT:          0 MISS:          0
cpu0_ITLB WRITE        ACCESS:          0 HIT:          0 MISS:          0
cpu0_ITLB TRANSLATION  ACCESS:          0 HIT:          0 MISS:          0
cpu0_ITLB PREFETCH REQUESTED:          0 ISSUED:          0 USEFUL:          0 USELESS:          0
cpu0_ITLB AVERAGE MISS LATENCY: 471.5 cycles
cpu0_L1D TOTAL        ACCESS:   10975535 HIT:    4209645 MISS:    6765890
cpu0_L1D LOAD         ACCESS:    5069606 HIT:    2091970 MISS:    2977636
cpu0_L1D RFO          ACCESS:          0 HIT:          0 MISS:          0
cpu0_L1D PREFETCH     ACCESS:    2325543 HIT:     504251 MISS:    1821292
cpu0_L1D WRITE        ACCESS:    3558558 HIT:    1609887 MISS:    1948671
cpu0_L1D TRANSLATION  ACCESS:      21828 HIT:       3537 MISS:      18291
cpu0_L1D PREFETCH REQUESTED:   11726402 ISSUED:    2325541 USEFUL:     432067 USELESS:      12323
cpu0_L1D AVERAGE MISS LATENCY: 131.2 cycles
cpu0_L1I TOTAL        ACCESS:        137 HIT:         11 MISS:        126
cpu0_L1I LOAD         ACCESS:        137 HIT:         11 MISS:        126
cpu0_L1I RFO          ACCESS:          0 HIT:          0 MISS:          0
cpu0_L1I PREFETCH     ACCESS:          0 HIT:          0 MISS:          0
cpu0_L1I WRITE        ACCESS:          0 HIT:          0 MISS:          0
cpu0_L1I TRANSLATION  ACCESS:          0 HIT:          0 MISS:          0
cpu0_L1I PREFETCH REQUESTED:          0 ISSUED:          0 USEFUL:          0 USELESS:          0
cpu0_L1I AVERAGE MISS LATENCY: 453.4 cycles
cpu0_L2C TOTAL        ACCESS:    1626390 HIT:     531161 MISS:    1095229
cpu0_L2C LOAD         ACCESS:     236880 HIT:      24613 MISS:     212267
cpu0_L2C RFO          ACCESS:     282815 HIT:          4 MISS:     282811
cpu0_L2C PREFETCH     ACCESS:     637790 HIT:      43782 MISS:     594008
cpu0_L2C WRITE        ACCESS:     450615 HIT:     450606 MISS:          9
cpu0_L2C TRANSLATION  ACCESS:      18290 HIT:      12156 MISS:       6134
cpu0_L2C PREFETCH REQUESTED:     193398 ISSUED:     193398 USEFUL:      62515 USELESS:      21526
cpu0_L2C AVERAGE MISS LATENCY: 1448 cycles
cpu0_STLB TOTAL        ACCESS:      31436 HIT:       9699 MISS:      21737
cpu0_STLB LOAD         ACCESS:      31436 HIT:       9699 MISS:      21737
cpu0_STLB RFO          ACCESS:          0 HIT:          0 MISS:          0
cpu0_STLB PREFETCH     ACCESS:          0 HIT:          0 MISS:          0
cpu0_STLB WRITE        ACCESS:          0 HIT:          0 MISS:          0
cpu0_STLB TRANSLATION  ACCESS:          0 HIT:          0 MISS:          0
cpu0_STLB PREFETCH REQUESTED:          0 ISSUED:          0 USEFUL:          0 USELESS:          0
cpu0_STLB AVERAGE MISS LATENCY: 697.2 cycles

DRAM Statistics

Channel 0 RQ ROW_BUFFER_HIT:     209385
  ROW_BUFFER_MISS:     723405
 AVG DBUS CONGESTED CYCLE: 3.945
WQ ROW_BUFFER_HIT: Channel 0 
  ROW_BUFFER_MISS:      20141
  FULL:     421568
