WARNING: physical memory size is smaller than virtual memory size.

*** ChampSim Multicore Out-of-Order Simulator ***
Warmup Instructions: 25000000
Simulation Instructions: 25000000
Number of CPUs: 1
Page size: 4096

Off-chip DRAM Size: 4 GiB Channels: 1 Width: 64-bit Data Race: 800 MT/s
Heartbeat CPU 0 instructions: 10000000 cycles: 2500349 heartbeat IPC: 3.999 cumulative IPC: 3.999 (Simulation time: 00 hr 00 min 31 sec)
Heartbeat CPU 0 instructions: 20000000 cycles: 5000349 heartbeat IPC: 4 cumulative IPC: 4 (Simulation time: 00 hr 01 min 01 sec)
Warmup finished CPU 0 instructions: 25000000 cycles: 6250350 cumulative IPC: 4 (Simulation time: 00 hr 01 min 18 sec)
Warmup complete CPU 0 instructions: 25000000 cycles: 6250350 cumulative IPC: 4 (Simulation time: 00 hr 01 min 18 sec)
Heartbeat CPU 0 instructions: 30000000 cycles: 20721354 heartbeat IPC: 0.6361 cumulative IPC: 0.3455 (Simulation time: 00 hr 03 min 12 sec)
Heartbeat CPU 0 instructions: 40000001 cycles: 48615512 heartbeat IPC: 0.3585 cumulative IPC: 0.3541 (Simulation time: 00 hr 06 min 47 sec)
Heartbeat CPU 0 instructions: 50000003 cycles: 67309451 heartbeat IPC: 0.5349 cumulative IPC: 0.4094 (Simulation time: 00 hr 09 min 22 sec)
Simulation finished CPU 0 instructions: 25000003 cycles: 61059102 cumulative IPC: 0.4094 (Simulation time: 00 hr 09 min 22 sec)
Simulation complete CPU 0 instructions: 25000003 cycles: 61059102 cumulative IPC: 0.4094 (Simulation time: 00 hr 09 min 22 sec)

ChampSim completed all CPUs

=== Simulation ===
CPU 0 runs ./traces/654.roms_s-523B.champsimtrace.xz
Region of Interest Statistics

CPU 0 cumulative IPC: 0.4094 instructions: 25000003 cycles: 61059102
CPU 0 Branch Prediction Accuracy: 99.85% MPKI: 0.09976 Average ROB Occupancy at Mispredict: 350.3
Branch type MPKI
BRANCH_DIRECT_JUMP: 4e-05
BRANCH_INDIRECT: 0
BRANCH_CONDITIONAL: 0.0997
BRANCH_DIRECT_CALL: 0
BRANCH_INDIRECT_CALL: 0
BRANCH_RETURN: 0

LLC TOTAL        ACCESS:     895833 HIT:     224264 MISS:     671569
LLC LOAD         ACCESS:     121293 HIT:        344 MISS:     120949
LLC RFO          ACCESS:     155876 HIT:          0 MISS:     155876
LLC PREFETCH     ACCESS:     391699 HIT:        818 MISS:     390881
LLC WRITE        ACCESS:     222651 HIT:     222597 MISS:         54
LLC TRANSLATION  ACCESS:       4314 HIT:        505 MISS:       3809
LLC PREFETCH REQUESTED:          0 ISSUED:          0 USEFUL:          0 USELESS:          0
LLC AVERAGE MISS LATENCY: 1042 cycles
cpu0_DTLB TOTAL        ACCESS:    6783015 HIT:    6692386 MISS:      90629
cpu0_DTLB LOAD         ACCESS:    6783015 HIT:    6692386 MISS:      90629
cpu0_DTLB RFO          ACCESS:          0 HIT:          0 MISS:          0
cpu0_DTLB PREFETCH     ACCESS:          0 HIT:          0 MISS:          0
cpu0_DTLB WRITE        ACCESS:          0 HIT:          0 MISS:          0
cpu0_DTLB TRANSLATION  ACCESS:          0 HIT:          0 MISS:          0
cpu0_DTLB PREFETCH REQUESTED:          0 ISSUED:          0 USEFUL:          0 USELESS:          0
cpu0_DTLB AVERAGE MISS LATENCY: 40.06 cycles
cpu0_ITLB TOTAL        ACCESS:         32 HIT:         32 MISS:          0
cpu0_ITLB LOAD         ACCESS:         32 HIT:         32 MISS:          0
cpu0_ITLB RFO          ACCESS:          0 HIT:          0 MISS:          0
cpu0_ITLB PREFETCH     ACCESS:          0 HIT:          0 MISS:          0
cpu0_ITLB WRITE        ACCESS:          0 HIT:          0 MISS:          0
cpu0_ITLB TRANSLATION  ACCESS:          0 HIT:          0 MISS:          0
cpu0_ITLB PREFETCH REQUESTED:          0 ISSUED:          0 USEFUL:          0 USELESS:          0
cpu0_ITLB AVERAGE MISS LATENCY: -nan cycles
cpu0_L1D TOTAL        ACCESS:   11926610 HIT:    5046770 MISS:    6879840
cpu0_L1D LOAD         ACCESS:    7290422 HIT:    3531228 MISS:    3759194
cpu0_L1D RFO          ACCESS:          0 HIT:          0 MISS:          0
cpu0_L1D PREFETCH     ACCESS:    2851077 HIT:     938413 MISS:    1912664
cpu0_L1D WRITE        ACCESS:    1769189 HIT:     574286 MISS:    1194903
cpu0_L1D TRANSLATION  ACCESS:      15922 HIT:       2843 MISS:      13079
cpu0_L1D PREFETCH REQUESTED:    7847032 ISSUED:    2851078 USEFUL:     389932 USELESS:      10825
cpu0_L1D AVERAGE MISS LATENCY: 60.15 cycles
cpu0_L1I TOTAL        ACCESS:         36 HIT:          6 MISS:         30
cpu0_L1I LOAD         ACCESS:         36 HIT:          6 MISS:         30
cpu0_L1I RFO          ACCESS:          0 HIT:          0 MISS:          0
cpu0_L1I PREFETCH     ACCESS:          0 HIT:          0 MISS:          0
cpu0_L1I WRITE        ACCESS:          0 HIT:          0 MISS:          0
cpu0_L1I TRANSLATION  ACCESS:          0 HIT:          0 MISS:          0
cpu0_L1I PREFETCH REQUESTED:          0 ISSUED:          0 USEFUL:          0 USELESS:          0
cpu0_L1I AVERAGE MISS LATENCY: 812.9 cycles
cpu0_L2C TOTAL        ACCESS:     999123 HIT:     282483 MISS:     716640
cpu0_L2C LOAD         ACCESS:     143699 HIT:      16520 MISS:     127179
cpu0_L2C RFO          ACCESS:     155876 HIT:          0 MISS:     155876
cpu0_L2C PREFETCH     ACCESS:     462756 HIT:      33492 MISS:     429264
cpu0_L2C WRITE        ACCESS:     223717 HIT:     223710 MISS:          7
cpu0_L2C TRANSLATION  ACCESS:      13075 HIT:       8761 MISS:       4314
cpu0_L2C PREFETCH REQUESTED:      61998 ISSUED:      61998 USEFUL:      26508 USELESS:      16858
cpu0_L2C AVERAGE MISS LATENCY: 992.3 cycles
cpu0_STLB TOTAL        ACCESS:      15890 HIT:         12 MISS:      15878
cpu0_STLB LOAD         ACCESS:      15890 HIT:         12 MISS:      15878
cpu0_STLB RFO          ACCESS:          0 HIT:          0 MISS:          0
cpu0_STLB PREFETCH     ACCESS:          0 HIT:          0 MISS:          0
cpu0_STLB WRITE        ACCESS:          0 HIT:          0 MISS:          0
cpu0_STLB TRANSLATION  ACCESS:          0 HIT:          0 MISS:          0
cpu0_STLB PREFETCH REQUESTED:          0 ISSUED:          0 USEFUL:          0 USELESS:          0
cpu0_STLB AVERAGE MISS LATENCY: 434.6 cycles

DRAM Statistics

Channel 0 RQ ROW_BUFFER_HIT:     166340
  ROW_BUFFER_MISS:     504464
 AVG DBUS CONGESTED CYCLE: 3.92
WQ ROW_BUFFER_HIT: Channel 0 
  ROW_BUFFER_MISS:       9959
  FULL:     213597
