WARNING: physical memory size is smaller than virtual memory size.

*** ChampSim Multicore Out-of-Order Simulator ***
Warmup Instructions: 25000000
Simulation Instructions: 25000000
Number of CPUs: 1
Page size: 4096

Off-chip DRAM Size: 4 GiB Channels: 1 Width: 64-bit Data Race: 800 MT/s
Heartbeat CPU 0 instructions: 10000003 cycles: 2500108 heartbeat IPC: 4 cumulative IPC: 4 (Simulation time: 00 hr 00 min 28 sec)
Heartbeat CPU 0 instructions: 20000003 cycles: 5000108 heartbeat IPC: 4 cumulative IPC: 4 (Simulation time: 00 hr 00 min 56 sec)
Warmup finished CPU 0 instructions: 25000003 cycles: 6250109 cumulative IPC: 4 (Simulation time: 00 hr 01 min 11 sec)
Warmup complete CPU 0 instructions: 25000003 cycles: 6250109 cumulative IPC: 4 (Simulation time: 00 hr 01 min 11 sec)
Heartbeat CPU 0 instructions: 30000001 cycles: 24173326 heartbeat IPC: 0.5216 cumulative IPC: 0.279 (Simulation time: 00 hr 03 min 12 sec)
Heartbeat CPU 0 instructions: 40000000 cycles: 52398978 heartbeat IPC: 0.3543 cumulative IPC: 0.325 (Simulation time: 00 hr 06 min 46 sec)
Heartbeat CPU 0 instructions: 50000000 cycles: 70719591 heartbeat IPC: 0.5458 cumulative IPC: 0.3878 (Simulation time: 00 hr 09 min 15 sec)
Simulation finished CPU 0 instructions: 25000001 cycles: 64469484 cumulative IPC: 0.3878 (Simulation time: 00 hr 09 min 15 sec)
Simulation complete CPU 0 instructions: 25000001 cycles: 64469484 cumulative IPC: 0.3878 (Simulation time: 00 hr 09 min 15 sec)

ChampSim completed all CPUs

=== Simulation ===
CPU 0 runs ./traces/654.roms_s-1070B.champsimtrace.xz
Region of Interest Statistics

CPU 0 cumulative IPC: 0.3878 instructions: 25000001 cycles: 64469484
CPU 0 Branch Prediction Accuracy: 99.88% MPKI: 0.06228 Average ROB Occupancy at Mispredict: 351.7
Branch type MPKI
BRANCH_DIRECT_JUMP: 0
BRANCH_INDIRECT: 0
BRANCH_CONDITIONAL: 0.0623
BRANCH_DIRECT_CALL: 0
BRANCH_INDIRECT_CALL: 0
BRANCH_RETURN: 0

LLC TOTAL        ACCESS:     728307 HIT:     168318 MISS:     559989
LLC LOAD         ACCESS:      45881 HIT:        764 MISS:      45117
LLC RFO          ACCESS:     167090 HIT:          0 MISS:     167090
LLC PREFETCH     ACCESS:     345446 HIT:        393 MISS:     345053
LLC WRITE        ACCESS:     167086 HIT:     166965 MISS:        121
LLC TRANSLATION  ACCESS:       2804 HIT:        196 MISS:       2608
LLC PREFETCH REQUESTED:          0 ISSUED:          0 USEFUL:          0 USELESS:          0
LLC AVERAGE MISS LATENCY: 1306 cycles
cpu0_DTLB TOTAL        ACCESS:    6676927 HIT:    6617600 MISS:      59327
cpu0_DTLB LOAD         ACCESS:    6676927 HIT:    6617600 MISS:      59327
cpu0_DTLB RFO          ACCESS:          0 HIT:          0 MISS:          0
cpu0_DTLB PREFETCH     ACCESS:          0 HIT:          0 MISS:          0
cpu0_DTLB WRITE        ACCESS:          0 HIT:          0 MISS:          0
cpu0_DTLB TRANSLATION  ACCESS:          0 HIT:          0 MISS:          0
cpu0_DTLB PREFETCH REQUESTED:          0 ISSUED:          0 USEFUL:          0 USELESS:          0
cpu0_DTLB AVERAGE MISS LATENCY: 39.92 cycles
cpu0_ITLB TOTAL        ACCESS:          0 HIT:          0 MISS:          0
cpu0_ITLB LOAD         ACCESS:          0 HIT:          0 MISS:          0
cpu0_ITLB RFO          ACCESS:          0 HIT:          0 MISS:          0
cpu0_ITLB PREFETCH     ACCESS:          0 HIT:          0 MISS:          0
cpu0_ITLB WRITE        ACCESS:          0 HIT:          0 MISS:          0
cpu0_ITLB TRANSLATION  ACCESS:          0 HIT:          0 MISS:          0
cpu0_ITLB PREFETCH REQUESTED:          0 ISSUED:          0 USEFUL:          0 USELESS:          0
cpu0_ITLB AVERAGE MISS LATENCY: -nan cycles
cpu0_L1D TOTAL        ACCESS:   11264374 HIT:    5567073 MISS:    5697301
cpu0_L1D LOAD         ACCESS:    7094395 HIT:    4383928 MISS:    2710467
cpu0_L1D RFO          ACCESS:          0 HIT:          0 MISS:          0
cpu0_L1D PREFETCH     ACCESS:    2828810 HIT:    1139321 MISS:    1689489
cpu0_L1D WRITE        ACCESS:    1329057 HIT:      42775 MISS:    1286282
cpu0_L1D TRANSLATION  ACCESS:      12112 HIT:       1049 MISS:      11063
cpu0_L1D PREFETCH REQUESTED:    8175860 ISSUED:    2828804 USEFUL:     325728 USELESS:       6164
cpu0_L1D AVERAGE MISS LATENCY: 69.73 cycles
cpu0_L1I TOTAL        ACCESS:          0 HIT:          0 MISS:          0
cpu0_L1I LOAD         ACCESS:          0 HIT:          0 MISS:          0
cpu0_L1I RFO          ACCESS:          0 HIT:          0 MISS:          0
cpu0_L1I PREFETCH     ACCESS:          0 HIT:          0 MISS:          0
cpu0_L1I WRITE        ACCESS:          0 HIT:          0 MISS:          0
cpu0_L1I TRANSLATION  ACCESS:          0 HIT:          0 MISS:          0
cpu0_L1I PREFETCH REQUESTED:          0 ISSUED:          0 USEFUL:          0 USELESS:          0
cpu0_L1I AVERAGE MISS LATENCY: -nan cycles
cpu0_L2C TOTAL        ACCESS:     755081 HIT:     184234 MISS:     570847
cpu0_L2C LOAD         ACCESS:      52125 HIT:       4397 MISS:      47728
cpu0_L2C RFO          ACCESS:     167090 HIT:          0 MISS:     167090
cpu0_L2C PREFETCH     ACCESS:     356643 HIT:       3425 MISS:     353218
cpu0_L2C WRITE        ACCESS:     168160 HIT:     168153 MISS:          7
cpu0_L2C TRANSLATION  ACCESS:      11063 HIT:       8259 MISS:       2804
cpu0_L2C PREFETCH REQUESTED:      24752 ISSUED:      24752 USEFUL:       4591 USELESS:       4307
cpu0_L2C AVERAGE MISS LATENCY: 1286 cycles
cpu0_STLB TOTAL        ACCESS:      12085 HIT:          6 MISS:      12079
cpu0_STLB LOAD         ACCESS:      12085 HIT:          6 MISS:      12079
cpu0_STLB RFO          ACCESS:          0 HIT:          0 MISS:          0
cpu0_STLB PREFETCH     ACCESS:          0 HIT:          0 MISS:          0
cpu0_STLB WRITE        ACCESS:          0 HIT:          0 MISS:          0
cpu0_STLB TRANSLATION  ACCESS:          0 HIT:          0 MISS:          0
cpu0_STLB PREFETCH REQUESTED:          0 ISSUED:          0 USEFUL:          0 USELESS:          0
cpu0_STLB AVERAGE MISS LATENCY: 428 cycles

DRAM Statistics

Channel 0 RQ ROW_BUFFER_HIT:      86239
  ROW_BUFFER_MISS:     462996
 AVG DBUS CONGESTED CYCLE: 3.96
WQ ROW_BUFFER_HIT: Channel 0 
  ROW_BUFFER_MISS:      11548
  FULL:     155376
