WARNING: physical memory size is smaller than virtual memory size.

*** ChampSim Multicore Out-of-Order Simulator ***
Warmup Instructions: 25000000
Simulation Instructions: 25000000
Number of CPUs: 1
Page size: 4096

Off-chip DRAM Size: 4 GiB Channels: 1 Width: 64-bit Data Race: 800 MT/s
Heartbeat CPU 0 instructions: 10000003 cycles: 2500448 heartbeat IPC: 3.999 cumulative IPC: 3.999 (Simulation time: 00 hr 00 min 30 sec)
Heartbeat CPU 0 instructions: 20000003 cycles: 5001150 heartbeat IPC: 3.999 cumulative IPC: 3.999 (Simulation time: 00 hr 00 min 59 sec)
Warmup finished CPU 0 instructions: 25000003 cycles: 6251151 cumulative IPC: 3.999 (Simulation time: 00 hr 01 min 14 sec)
Warmup complete CPU 0 instructions: 25000003 cycles: 6251151 cumulative IPC: 3.999 (Simulation time: 00 hr 01 min 14 sec)
Heartbeat CPU 0 instructions: 30000000 cycles: 9503197 heartbeat IPC: 2.221 cumulative IPC: 1.537 (Simulation time: 00 hr 01 min 46 sec)
Heartbeat CPU 0 instructions: 40000002 cycles: 17023076 heartbeat IPC: 1.33 cumulative IPC: 1.393 (Simulation time: 00 hr 03 min 00 sec)
Heartbeat CPU 0 instructions: 50000002 cycles: 23233308 heartbeat IPC: 1.61 cumulative IPC: 1.472 (Simulation time: 00 hr 04 min 02 sec)
Simulation finished CPU 0 instructions: 25000003 cycles: 16982159 cumulative IPC: 1.472 (Simulation time: 00 hr 04 min 02 sec)
Simulation complete CPU 0 instructions: 25000003 cycles: 16982159 cumulative IPC: 1.472 (Simulation time: 00 hr 04 min 02 sec)

ChampSim completed all CPUs

=== Simulation ===
CPU 0 runs ./traces/654.roms_s-293B.champsimtrace.xz
Region of Interest Statistics

CPU 0 cumulative IPC: 1.472 instructions: 25000003 cycles: 16982159
CPU 0 Branch Prediction Accuracy: 99.8% MPKI: 0.02352 Average ROB Occupancy at Mispredict: 346
Branch type MPKI
BRANCH_DIRECT_JUMP: 0
BRANCH_INDIRECT: 0
BRANCH_CONDITIONAL: 0.0235
BRANCH_DIRECT_CALL: 0
BRANCH_INDIRECT_CALL: 0
BRANCH_RETURN: 0

LLC TOTAL        ACCESS:     394611 HIT:     258296 MISS:     136315
LLC LOAD         ACCESS:      28894 HIT:      19934 MISS:       8960
LLC RFO          ACCESS:     128292 HIT:      48362 MISS:      79930
LLC PREFETCH     ACCESS:     108110 HIT:      64328 MISS:      43782
LLC WRITE        ACCESS:     125811 HIT:     125390 MISS:        421
LLC TRANSLATION  ACCESS:       3504 HIT:        282 MISS:       3222
LLC PREFETCH REQUESTED:          0 ISSUED:          0 USEFUL:          0 USELESS:          0
LLC AVERAGE MISS LATENCY: 971 cycles
cpu0_DTLB TOTAL        ACCESS:    5848796 HIT:    5826061 MISS:      22735
cpu0_DTLB LOAD         ACCESS:    5848796 HIT:    5826061 MISS:      22735
cpu0_DTLB RFO          ACCESS:          0 HIT:          0 MISS:          0
cpu0_DTLB PREFETCH     ACCESS:          0 HIT:          0 MISS:          0
cpu0_DTLB WRITE        ACCESS:          0 HIT:          0 MISS:          0
cpu0_DTLB TRANSLATION  ACCESS:          0 HIT:          0 MISS:          0
cpu0_DTLB PREFETCH REQUESTED:          0 ISSUED:          0 USEFUL:          0 USELESS:          0
cpu0_DTLB AVERAGE MISS LATENCY: 120.6 cycles
cpu0_ITLB TOTAL        ACCESS:        290 HIT:        290 MISS:          0
cpu0_ITLB LOAD         ACCESS:        290 HIT:        290 MISS:          0
cpu0_ITLB RFO          ACCESS:          0 HIT:          0 MISS:          0
cpu0_ITLB PREFETCH     ACCESS:          0 HIT:          0 MISS:          0
cpu0_ITLB WRITE        ACCESS:          0 HIT:          0 MISS:          0
cpu0_ITLB TRANSLATION  ACCESS:          0 HIT:          0 MISS:          0
cpu0_ITLB PREFETCH REQUESTED:          0 ISSUED:          0 USEFUL:          0 USELESS:          0
cpu0_ITLB AVERAGE MISS LATENCY: -nan cycles
cpu0_L1D TOTAL        ACCESS:    9626322 HIT:    8541060 MISS:    1085262
cpu0_L1D LOAD         ACCESS:    4552592 HIT:    4305239 MISS:     247353
cpu0_L1D RFO          ACCESS:          0 HIT:          0 MISS:          0
cpu0_L1D PREFETCH     ACCESS:    2709600 HIT:    2477823 MISS:     231777
cpu0_L1D WRITE        ACCESS:    2360509 HIT:    1757967 MISS:     602542
cpu0_L1D TRANSLATION  ACCESS:       3621 HIT:         31 MISS:       3590
cpu0_L1D PREFETCH REQUESTED:    5067275 ISSUED:    2709601 USEFUL:      64584 USELESS:       2430
cpu0_L1D AVERAGE MISS LATENCY: 83.45 cycles
cpu0_L1I TOTAL        ACCESS:        392 HIT:        392 MISS:          0
cpu0_L1I LOAD         ACCESS:        392 HIT:        392 MISS:          0
cpu0_L1I RFO          ACCESS:          0 HIT:          0 MISS:          0
cpu0_L1I PREFETCH     ACCESS:          0 HIT:          0 MISS:          0
cpu0_L1I WRITE        ACCESS:          0 HIT:          0 MISS:          0
cpu0_L1I TRANSLATION  ACCESS:          0 HIT:          0 MISS:          0
cpu0_L1I PREFETCH REQUESTED:          0 ISSUED:          0 USEFUL:          0 USELESS:          0
cpu0_L1I AVERAGE MISS LATENCY: -nan cycles
cpu0_L2C TOTAL        ACCESS:     580618 HIT:     293994 MISS:     286624
cpu0_L2C LOAD         ACCESS:      97419 HIT:      63565 MISS:      33854
cpu0_L2C RFO          ACCESS:     128543 HIT:        250 MISS:     128293
cpu0_L2C PREFETCH     ACCESS:     222398 HIT:     101831 MISS:     120567
cpu0_L2C WRITE        ACCESS:     128688 HIT:     128282 MISS:        406
cpu0_L2C TRANSLATION  ACCESS:       3570 HIT:         66 MISS:       3504
cpu0_L2C PREFETCH REQUESTED:     155379 ISSUED:     155379 USEFUL:      47181 USELESS:       2673
cpu0_L2C AVERAGE MISS LATENCY: 477.1 cycles
cpu0_STLB TOTAL        ACCESS:       6264 HIT:       3892 MISS:       2372
cpu0_STLB LOAD         ACCESS:       6264 HIT:       3892 MISS:       2372
cpu0_STLB RFO          ACCESS:          0 HIT:          0 MISS:          0
cpu0_STLB PREFETCH     ACCESS:          0 HIT:          0 MISS:          0
cpu0_STLB WRITE        ACCESS:          0 HIT:          0 MISS:          0
cpu0_STLB TRANSLATION  ACCESS:          0 HIT:          0 MISS:          0
cpu0_STLB PREFETCH REQUESTED:          0 ISSUED:          0 USEFUL:          0 USELESS:          0
cpu0_STLB AVERAGE MISS LATENCY: 1602 cycles

DRAM Statistics

Channel 0 RQ ROW_BUFFER_HIT:      37347
  ROW_BUFFER_MISS:      98474
 AVG DBUS CONGESTED CYCLE: 3.946
WQ ROW_BUFFER_HIT: Channel 0 
  ROW_BUFFER_MISS:       2297
  FULL:      74026
