WARNING: physical memory size is smaller than virtual memory size.

*** ChampSim Multicore Out-of-Order Simulator ***
Warmup Instructions: 25000000
Simulation Instructions: 25000000
Number of CPUs: 1
Page size: 4096

Off-chip DRAM Size: 4 GiB Channels: 1 Width: 64-bit Data Race: 800 MT/s
Heartbeat CPU 0 instructions: 10000003 cycles: 2501569 heartbeat IPC: 3.997 cumulative IPC: 3.997 (Simulation time: 00 hr 00 min 32 sec)
Heartbeat CPU 0 instructions: 20000002 cycles: 5003051 heartbeat IPC: 3.998 cumulative IPC: 3.998 (Simulation time: 00 hr 01 min 03 sec)
Warmup finished CPU 0 instructions: 25000000 cycles: 6265432 cumulative IPC: 3.99 (Simulation time: 00 hr 01 min 18 sec)
Warmup complete CPU 0 instructions: 25000000 cycles: 6265432 cumulative IPC: 3.99 (Simulation time: 00 hr 01 min 18 sec)
Heartbeat CPU 0 instructions: 30000003 cycles: 10527709 heartbeat IPC: 1.81 cumulative IPC: 1.173 (Simulation time: 00 hr 01 min 48 sec)
Heartbeat CPU 0 instructions: 40000000 cycles: 19048494 heartbeat IPC: 1.174 cumulative IPC: 1.173 (Simulation time: 00 hr 02 min 47 sec)
Heartbeat CPU 0 instructions: 50000000 cycles: 27742964 heartbeat IPC: 1.15 cumulative IPC: 1.164 (Simulation time: 00 hr 03 min 47 sec)
Simulation finished CPU 0 instructions: 25000000 cycles: 21477533 cumulative IPC: 1.164 (Simulation time: 00 hr 03 min 47 sec)
Simulation complete CPU 0 instructions: 25000000 cycles: 21477533 cumulative IPC: 1.164 (Simulation time: 00 hr 03 min 47 sec)

ChampSim completed all CPUs

=== Simulation ===
CPU 0 runs ./traces/657.xz_s-2302B.champsimtrace.xz
Region of Interest Statistics

CPU 0 cumulative IPC: 1.164 instructions: 25000000 cycles: 21477533
CPU 0 Branch Prediction Accuracy: 85.76% MPKI: 18.42 Average ROB Occupancy at Mispredict: 28.37
Branch type MPKI
BRANCH_DIRECT_JUMP: 0.122
BRANCH_INDIRECT: 1.07
BRANCH_CONDITIONAL: 17.2
BRANCH_DIRECT_CALL: 0
BRANCH_INDIRECT_CALL: 0.00356
BRANCH_RETURN: 0

LLC TOTAL        ACCESS:     309027 HIT:     236178 MISS:      72849
LLC LOAD         ACCESS:      97334 HIT:      64889 MISS:      32445
LLC RFO          ACCESS:       8326 HIT:       5040 MISS:       3286
LLC PREFETCH     ACCESS:     105506 HIT:      69754 MISS:      35752
LLC WRITE        ACCESS:      83349 HIT:      82808 MISS:        541
LLC TRANSLATION  ACCESS:      14512 HIT:      13687 MISS:        825
LLC PREFETCH REQUESTED:          0 ISSUED:          0 USEFUL:          0 USELESS:          0
LLC AVERAGE MISS LATENCY: 266 cycles
cpu0_DTLB TOTAL        ACCESS:    5603505 HIT:    5414469 MISS:     189036
cpu0_DTLB LOAD         ACCESS:    5603505 HIT:    5414469 MISS:     189036
cpu0_DTLB RFO          ACCESS:          0 HIT:          0 MISS:          0
cpu0_DTLB PREFETCH     ACCESS:          0 HIT:          0 MISS:          0
cpu0_DTLB WRITE        ACCESS:          0 HIT:          0 MISS:          0
cpu0_DTLB TRANSLATION  ACCESS:          0 HIT:          0 MISS:          0
cpu0_DTLB PREFETCH REQUESTED:          0 ISSUED:          0 USEFUL:          0 USELESS:          0
cpu0_DTLB AVERAGE MISS LATENCY: 11.33 cycles
cpu0_ITLB TOTAL        ACCESS:     224602 HIT:     224602 MISS:          0
cpu0_ITLB LOAD         ACCESS:     224602 HIT:     224602 MISS:          0
cpu0_ITLB RFO          ACCESS:          0 HIT:          0 MISS:          0
cpu0_ITLB PREFETCH     ACCESS:          0 HIT:          0 MISS:          0
cpu0_ITLB WRITE        ACCESS:          0 HIT:          0 MISS:          0
cpu0_ITLB TRANSLATION  ACCESS:          0 HIT:          0 MISS:          0
cpu0_ITLB PREFETCH REQUESTED:          0 ISSUED:          0 USEFUL:          0 USELESS:          0
cpu0_ITLB AVERAGE MISS LATENCY: -nan cycles
cpu0_L1D TOTAL        ACCESS:   11232253 HIT:   10690201 MISS:     542052
cpu0_L1D LOAD         ACCESS:    5035392 HIT:    4795969 MISS:     239423
cpu0_L1D RFO          ACCESS:          0 HIT:          0 MISS:          0
cpu0_L1D PREFETCH     ACCESS:    4210989 HIT:    3962475 MISS:     248514
cpu0_L1D WRITE        ACCESS:    1963726 HIT:    1931103 MISS:      32623
cpu0_L1D TRANSLATION  ACCESS:      22146 HIT:        654 MISS:      21492
cpu0_L1D PREFETCH REQUESTED:    5047382 ISSUED:    4210990 USEFUL:      25970 USELESS:     146510
cpu0_L1D AVERAGE MISS LATENCY: 50.57 cycles
cpu0_L1I TOTAL        ACCESS:     276624 HIT:     276560 MISS:         64
cpu0_L1I LOAD         ACCESS:     276624 HIT:     276560 MISS:         64
cpu0_L1I RFO          ACCESS:          0 HIT:          0 MISS:          0
cpu0_L1I PREFETCH     ACCESS:          0 HIT:          0 MISS:          0
cpu0_L1I WRITE        ACCESS:          0 HIT:          0 MISS:          0
cpu0_L1I TRANSLATION  ACCESS:          0 HIT:          0 MISS:          0
cpu0_L1I PREFETCH REQUESTED:          0 ISSUED:          0 USEFUL:          0 USELESS:          0
cpu0_L1I AVERAGE MISS LATENCY: 178.2 cycles
cpu0_L2C TOTAL        ACCESS:     519795 HIT:     292750 MISS:     227045
cpu0_L2C LOAD         ACCESS:     164884 HIT:      67480 MISS:      97404
cpu0_L2C RFO          ACCESS:      23239 HIT:      14913 MISS:       8326
cpu0_L2C PREFETCH     ACCESS:     178269 HIT:      71967 MISS:     106302
cpu0_L2C WRITE        ACCESS:     131923 HIT:     131422 MISS:        501
cpu0_L2C TRANSLATION  ACCESS:      21480 HIT:       6968 MISS:      14512
cpu0_L2C PREFETCH REQUESTED:       5769 ISSUED:       5769 USEFUL:        445 USELESS:        921
cpu0_L2C AVERAGE MISS LATENCY: 105.5 cycles
cpu0_STLB TOTAL        ACCESS:     148444 HIT:     126306 MISS:      22138
cpu0_STLB LOAD         ACCESS:     148444 HIT:     126306 MISS:      22138
cpu0_STLB RFO          ACCESS:          0 HIT:          0 MISS:          0
cpu0_STLB PREFETCH     ACCESS:          0 HIT:          0 MISS:          0
cpu0_STLB WRITE        ACCESS:          0 HIT:          0 MISS:          0
cpu0_STLB TRANSLATION  ACCESS:          0 HIT:          0 MISS:          0
cpu0_STLB PREFETCH REQUESTED:          0 ISSUED:          0 USEFUL:          0 USELESS:          0
cpu0_STLB AVERAGE MISS LATENCY: 48.01 cycles

DRAM Statistics

Channel 0 RQ ROW_BUFFER_HIT:       1530
  ROW_BUFFER_MISS:      70778
 AVG DBUS CONGESTED CYCLE: 3.955
WQ ROW_BUFFER_HIT: Channel 0 
  ROW_BUFFER_MISS:       7324
  FULL:      27028
