WARNING: physical memory size is smaller than virtual memory size.

*** ChampSim Multicore Out-of-Order Simulator ***
Warmup Instructions: 25000000
Simulation Instructions: 25000000
Number of CPUs: 1
Page size: 4096

Off-chip DRAM Size: 4 GiB Channels: 1 Width: 64-bit Data Race: 800 MT/s
Heartbeat CPU 0 instructions: 10000000 cycles: 2503066 heartbeat IPC: 3.995 cumulative IPC: 3.995 (Simulation time: 00 hr 00 min 29 sec)
Heartbeat CPU 0 instructions: 20000001 cycles: 5007531 heartbeat IPC: 3.993 cumulative IPC: 3.994 (Simulation time: 00 hr 00 min 59 sec)
Warmup finished CPU 0 instructions: 25000000 cycles: 6259011 cumulative IPC: 3.994 (Simulation time: 00 hr 01 min 13 sec)
Warmup complete CPU 0 instructions: 25000000 cycles: 6259011 cumulative IPC: 3.994 (Simulation time: 00 hr 01 min 13 sec)
Heartbeat CPU 0 instructions: 30000001 cycles: 9622057 heartbeat IPC: 2.167 cumulative IPC: 1.487 (Simulation time: 00 hr 01 min 38 sec)
Heartbeat CPU 0 instructions: 40000002 cycles: 16956111 heartbeat IPC: 1.364 cumulative IPC: 1.402 (Simulation time: 00 hr 02 min 31 sec)
Heartbeat CPU 0 instructions: 50000001 cycles: 24065105 heartbeat IPC: 1.407 cumulative IPC: 1.404 (Simulation time: 00 hr 03 min 23 sec)
Simulation finished CPU 0 instructions: 25000001 cycles: 17806095 cumulative IPC: 1.404 (Simulation time: 00 hr 03 min 23 sec)
Simulation complete CPU 0 instructions: 25000001 cycles: 17806095 cumulative IPC: 1.404 (Simulation time: 00 hr 03 min 23 sec)

ChampSim completed all CPUs

=== Simulation ===
CPU 0 runs ./traces/657.xz_s-3167B.champsimtrace.xz
Region of Interest Statistics

CPU 0 cumulative IPC: 1.404 instructions: 25000001 cycles: 17806095
CPU 0 Branch Prediction Accuracy: 89.96% MPKI: 14.78 Average ROB Occupancy at Mispredict: 34.02
Branch type MPKI
BRANCH_DIRECT_JUMP: 0.0787
BRANCH_INDIRECT: 0.897
BRANCH_CONDITIONAL: 13.8
BRANCH_DIRECT_CALL: 0
BRANCH_INDIRECT_CALL: 0.00248
BRANCH_RETURN: 0

LLC TOTAL        ACCESS:     215912 HIT:     158268 MISS:      57644
LLC LOAD         ACCESS:      63620 HIT:      39825 MISS:      23795
LLC RFO          ACCESS:      12104 HIT:       5679 MISS:       6425
LLC PREFETCH     ACCESS:      69592 HIT:      43060 MISS:      26532
LLC WRITE        ACCESS:      58255 HIT:      57803 MISS:        452
LLC TRANSLATION  ACCESS:      12341 HIT:      11901 MISS:        440
LLC PREFETCH REQUESTED:          0 ISSUED:          0 USEFUL:          0 USELESS:          0
LLC AVERAGE MISS LATENCY: 277.9 cycles
cpu0_DTLB TOTAL        ACCESS:    5182465 HIT:    5006917 MISS:     175548
cpu0_DTLB LOAD         ACCESS:    5182465 HIT:    5006917 MISS:     175548
cpu0_DTLB RFO          ACCESS:          0 HIT:          0 MISS:          0
cpu0_DTLB PREFETCH     ACCESS:          0 HIT:          0 MISS:          0
cpu0_DTLB WRITE        ACCESS:          0 HIT:          0 MISS:          0
cpu0_DTLB TRANSLATION  ACCESS:          0 HIT:          0 MISS:          0
cpu0_DTLB PREFETCH REQUESTED:          0 ISSUED:          0 USEFUL:          0 USELESS:          0
cpu0_DTLB AVERAGE MISS LATENCY: 11.86 cycles
cpu0_ITLB TOTAL        ACCESS:     176585 HIT:     176585 MISS:          0
cpu0_ITLB LOAD         ACCESS:     176585 HIT:     176585 MISS:          0
cpu0_ITLB RFO          ACCESS:          0 HIT:          0 MISS:          0
cpu0_ITLB PREFETCH     ACCESS:          0 HIT:          0 MISS:          0
cpu0_ITLB WRITE        ACCESS:          0 HIT:          0 MISS:          0
cpu0_ITLB TRANSLATION  ACCESS:          0 HIT:          0 MISS:          0
cpu0_ITLB PREFETCH REQUESTED:          0 ISSUED:          0 USEFUL:          0 USELESS:          0
cpu0_ITLB AVERAGE MISS LATENCY: -nan cycles
cpu0_L1D TOTAL        ACCESS:   11022800 HIT:   10542342 MISS:     480458
cpu0_L1D LOAD         ACCESS:    5062496 HIT:    4872349 MISS:     190147
cpu0_L1D RFO          ACCESS:          0 HIT:          0 MISS:          0
cpu0_L1D PREFETCH     ACCESS:    4242251 HIT:    4042154 MISS:     200097
cpu0_L1D WRITE        ACCESS:    1700216 HIT:    1627275 MISS:      72941
cpu0_L1D TRANSLATION  ACCESS:      17837 HIT:        564 MISS:      17273
cpu0_L1D PREFETCH REQUESTED:    5068797 ISSUED:    4242250 USEFUL:      23062 USELESS:     118171
cpu0_L1D AVERAGE MISS LATENCY: 45.22 cycles
cpu0_L1I TOTAL        ACCESS:     214618 HIT:     214467 MISS:        151
cpu0_L1I LOAD         ACCESS:     214618 HIT:     214467 MISS:        151
cpu0_L1I RFO          ACCESS:          0 HIT:          0 MISS:          0
cpu0_L1I PREFETCH     ACCESS:          0 HIT:          0 MISS:          0
cpu0_L1I WRITE        ACCESS:          0 HIT:          0 MISS:          0
cpu0_L1I TRANSLATION  ACCESS:          0 HIT:          0 MISS:          0
cpu0_L1I PREFETCH REQUESTED:          0 ISSUED:          0 USEFUL:          0 USELESS:          0
cpu0_L1I AVERAGE MISS LATENCY: 16.97 cycles
cpu0_L2C TOTAL        ACCESS:     497256 HIT:     337476 MISS:     159780
cpu0_L2C LOAD         ACCESS:     134314 HIT:      70599 MISS:      63715
cpu0_L2C RFO          ACCESS:      49187 HIT:      37083 MISS:      12104
cpu0_L2C PREFETCH     ACCESS:     150203 HIT:      78783 MISS:      71420
cpu0_L2C WRITE        ACCESS:     146290 HIT:     146090 MISS:        200
cpu0_L2C TRANSLATION  ACCESS:      17262 HIT:       4921 MISS:      12341
cpu0_L2C PREFETCH REQUESTED:       8994 ISSUED:       8994 USEFUL:        927 USELESS:       1166
cpu0_L2C AVERAGE MISS LATENCY: 120.3 cycles
cpu0_STLB TOTAL        ACCESS:     144110 HIT:     126273 MISS:      17837
cpu0_STLB LOAD         ACCESS:     144110 HIT:     126273 MISS:      17837
cpu0_STLB RFO          ACCESS:          0 HIT:          0 MISS:          0
cpu0_STLB PREFETCH     ACCESS:          0 HIT:          0 MISS:          0
cpu0_STLB WRITE        ACCESS:          0 HIT:          0 MISS:          0
cpu0_STLB TRANSLATION  ACCESS:          0 HIT:          0 MISS:          0
cpu0_STLB PREFETCH REQUESTED:          0 ISSUED:          0 USEFUL:          0 USELESS:          0
cpu0_STLB AVERAGE MISS LATENCY: 57.26 cycles

DRAM Statistics

Channel 0 RQ ROW_BUFFER_HIT:       2819
  ROW_BUFFER_MISS:      54371
 AVG DBUS CONGESTED CYCLE: 3.963
WQ ROW_BUFFER_HIT: Channel 0 
  ROW_BUFFER_MISS:       4670
  FULL:      22985
