WARNING: physical memory size is smaller than virtual memory size.

*** ChampSim Multicore Out-of-Order Simulator ***
Warmup Instructions: 25000000
Simulation Instructions: 25000000
Number of CPUs: 1
Page size: 4096

Off-chip DRAM Size: 4 GiB Channels: 1 Width: 64-bit Data Race: 800 MT/s
Heartbeat CPU 0 instructions: 10000003 cycles: 2500096 heartbeat IPC: 4 cumulative IPC: 4 (Simulation time: 00 hr 00 min 51 sec)
Heartbeat CPU 0 instructions: 20000003 cycles: 5000096 heartbeat IPC: 4 cumulative IPC: 4 (Simulation time: 00 hr 01 min 44 sec)
Warmup finished CPU 0 instructions: 25000003 cycles: 6250097 cumulative IPC: 4 (Simulation time: 00 hr 02 min 11 sec)
Warmup complete CPU 0 instructions: 25000003 cycles: 6250097 cumulative IPC: 4 (Simulation time: 00 hr 02 min 11 sec)
Heartbeat CPU 0 instructions: 30000001 cycles: 17208703 heartbeat IPC: 0.8191 cumulative IPC: 0.4563 (Simulation time: 00 hr 03 min 48 sec)
Heartbeat CPU 0 instructions: 40000001 cycles: 39109969 heartbeat IPC: 0.4566 cumulative IPC: 0.4565 (Simulation time: 00 hr 07 min 05 sec)
Heartbeat CPU 0 instructions: 50000000 cycles: 60586687 heartbeat IPC: 0.4656 cumulative IPC: 0.4601 (Simulation time: 00 hr 10 min 15 sec)
Simulation finished CPU 0 instructions: 25000001 cycles: 54336592 cumulative IPC: 0.4601 (Simulation time: 00 hr 10 min 15 sec)
Simulation complete CPU 0 instructions: 25000001 cycles: 54336592 cumulative IPC: 0.4601 (Simulation time: 00 hr 10 min 15 sec)

ChampSim completed all CPUs

=== Simulation ===
CPU 0 runs ./traces/astar_23B.trace.xz
Region of Interest Statistics

CPU 0 cumulative IPC: 0.4601 instructions: 25000001 cycles: 54336592
CPU 0 Branch Prediction Accuracy: 72.89% MPKI: 51.75 Average ROB Occupancy at Mispredict: 5.039
Branch type MPKI
BRANCH_DIRECT_JUMP: 0
BRANCH_INDIRECT: 0
BRANCH_CONDITIONAL: 51.7
BRANCH_DIRECT_CALL: 0
BRANCH_INDIRECT_CALL: 0
BRANCH_RETURN: 0

LLC TOTAL        ACCESS:     798913 HIT:     738220 MISS:      60693
LLC LOAD         ACCESS:     583810 HIT:     524277 MISS:      59533
LLC RFO          ACCESS:       5766 HIT:       5711 MISS:         55
LLC PREFETCH     ACCESS:          0 HIT:          0 MISS:          0
LLC WRITE        ACCESS:     202001 HIT:     201183 MISS:        818
LLC TRANSLATION  ACCESS:       7336 HIT:       7049 MISS:        287
LLC PREFETCH REQUESTED:          0 ISSUED:          0 USEFUL:          0 USELESS:          0
LLC AVERAGE MISS LATENCY: 210.2 cycles
cpu0_DTLB TOTAL        ACCESS:    6986630 HIT:    6172253 MISS:     814377
cpu0_DTLB LOAD         ACCESS:    6986630 HIT:    6172253 MISS:     814377
cpu0_DTLB RFO          ACCESS:          0 HIT:          0 MISS:          0
cpu0_DTLB PREFETCH     ACCESS:          0 HIT:          0 MISS:          0
cpu0_DTLB WRITE        ACCESS:          0 HIT:          0 MISS:          0
cpu0_DTLB TRANSLATION  ACCESS:          0 HIT:          0 MISS:          0
cpu0_DTLB PREFETCH REQUESTED:          0 ISSUED:          0 USEFUL:          0 USELESS:          0
cpu0_DTLB AVERAGE MISS LATENCY: 8.126 cycles
cpu0_ITLB TOTAL        ACCESS:          0 HIT:          0 MISS:          0
cpu0_ITLB LOAD         ACCESS:          0 HIT:          0 MISS:          0
cpu0_ITLB RFO          ACCESS:          0 HIT:          0 MISS:          0
cpu0_ITLB PREFETCH     ACCESS:          0 HIT:          0 MISS:          0
cpu0_ITLB WRITE        ACCESS:          0 HIT:          0 MISS:          0
cpu0_ITLB TRANSLATION  ACCESS:          0 HIT:          0 MISS:          0
cpu0_ITLB PREFETCH REQUESTED:          0 ISSUED:          0 USEFUL:          0 USELESS:          0
cpu0_ITLB AVERAGE MISS LATENCY: -nan cycles
cpu0_L1D TOTAL        ACCESS:    7950698 HIT:    6847728 MISS:    1102970
cpu0_L1D LOAD         ACCESS:    6638488 HIT:    5573236 MISS:    1065252
cpu0_L1D RFO          ACCESS:          0 HIT:          0 MISS:          0
cpu0_L1D PREFETCH     ACCESS:          0 HIT:          0 MISS:          0
cpu0_L1D WRITE        ACCESS:    1070052 HIT:    1052356 MISS:      17696
cpu0_L1D TRANSLATION  ACCESS:     242158 HIT:     222136 MISS:      20022
cpu0_L1D PREFETCH REQUESTED:          0 ISSUED:          0 USEFUL:          0 USELESS:          0
cpu0_L1D AVERAGE MISS LATENCY: 30.05 cycles
cpu0_L1I TOTAL        ACCESS:          0 HIT:          0 MISS:          0
cpu0_L1I LOAD         ACCESS:          0 HIT:          0 MISS:          0
cpu0_L1I RFO          ACCESS:          0 HIT:          0 MISS:          0
cpu0_L1I PREFETCH     ACCESS:          0 HIT:          0 MISS:          0
cpu0_L1I WRITE        ACCESS:          0 HIT:          0 MISS:          0
cpu0_L1I TRANSLATION  ACCESS:          0 HIT:          0 MISS:          0
cpu0_L1I PREFETCH REQUESTED:          0 ISSUED:          0 USEFUL:          0 USELESS:          0
cpu0_L1I AVERAGE MISS LATENCY: -nan cycles
cpu0_L2C TOTAL        ACCESS:    1068257 HIT:     471309 MISS:     596948
cpu0_L2C LOAD         ACCESS:     771951 HIT:     188140 MISS:     583811
cpu0_L2C RFO          ACCESS:      16204 HIT:      10438 MISS:       5766
cpu0_L2C PREFETCH     ACCESS:          0 HIT:          0 MISS:          0
cpu0_L2C WRITE        ACCESS:     260609 HIT:     260574 MISS:         35
cpu0_L2C TRANSLATION  ACCESS:      19493 HIT:      12157 MISS:       7336
cpu0_L2C PREFETCH REQUESTED:          0 ISSUED:          0 USEFUL:          0 USELESS:          0
cpu0_L2C AVERAGE MISS LATENCY: 41.47 cycles
cpu0_STLB TOTAL        ACCESS:     622301 HIT:     380145 MISS:     242156
cpu0_STLB LOAD         ACCESS:     622301 HIT:     380145 MISS:     242156
cpu0_STLB RFO          ACCESS:          0 HIT:          0 MISS:          0
cpu0_STLB PREFETCH     ACCESS:          0 HIT:          0 MISS:          0
cpu0_STLB WRITE        ACCESS:          0 HIT:          0 MISS:          0
cpu0_STLB TRANSLATION  ACCESS:          0 HIT:          0 MISS:          0
cpu0_STLB PREFETCH REQUESTED:          0 ISSUED:          0 USEFUL:          0 USELESS:          0
cpu0_STLB AVERAGE MISS LATENCY: 8.261 cycles

DRAM Statistics

Channel 0 RQ ROW_BUFFER_HIT:       5773
  ROW_BUFFER_MISS:      54053
 AVG DBUS CONGESTED CYCLE: 3.928
WQ ROW_BUFFER_HIT: Channel 0 
  ROW_BUFFER_MISS:       3155
  FULL:      31658
