WARNING: physical memory size is smaller than virtual memory size.

*** ChampSim Multicore Out-of-Order Simulator ***
Warmup Instructions: 25000000
Simulation Instructions: 25000000
Number of CPUs: 1
Page size: 4096

Off-chip DRAM Size: 4 GiB Channels: 1 Width: 64-bit Data Race: 800 MT/s
Heartbeat CPU 0 instructions: 10000001 cycles: 2576789 heartbeat IPC: 3.881 cumulative IPC: 3.881 (Simulation time: 00 hr 00 min 56 sec)
Heartbeat CPU 0 instructions: 20000000 cycles: 5153598 heartbeat IPC: 3.881 cumulative IPC: 3.881 (Simulation time: 00 hr 01 min 54 sec)
Warmup finished CPU 0 instructions: 25000000 cycles: 6441974 cumulative IPC: 3.881 (Simulation time: 00 hr 02 min 22 sec)
Warmup complete CPU 0 instructions: 25000000 cycles: 6441974 cumulative IPC: 3.881 (Simulation time: 00 hr 02 min 22 sec)
Heartbeat CPU 0 instructions: 30000000 cycles: 18583099 heartbeat IPC: 0.7446 cumulative IPC: 0.4118 (Simulation time: 00 hr 04 min 44 sec)
Heartbeat CPU 0 instructions: 40000001 cycles: 42843022 heartbeat IPC: 0.4122 cumulative IPC: 0.4121 (Simulation time: 00 hr 09 min 52 sec)
Heartbeat CPU 0 instructions: 50000001 cycles: 67137567 heartbeat IPC: 0.4116 cumulative IPC: 0.4119 (Simulation time: 00 hr 14 min 51 sec)
Simulation finished CPU 0 instructions: 25000001 cycles: 60695594 cumulative IPC: 0.4119 (Simulation time: 00 hr 14 min 51 sec)
Simulation complete CPU 0 instructions: 25000001 cycles: 60695594 cumulative IPC: 0.4119 (Simulation time: 00 hr 14 min 51 sec)

ChampSim completed all CPUs

=== Simulation ===
CPU 0 runs ./traces/bwaves_1861B.trace.xz
Region of Interest Statistics

CPU 0 cumulative IPC: 0.4119 instructions: 25000001 cycles: 60695594
CPU 0 Branch Prediction Accuracy: 81.22% MPKI: 5.619 Average ROB Occupancy at Mispredict: 261.6
Branch type MPKI
BRANCH_DIRECT_JUMP: 0
BRANCH_INDIRECT: 0
BRANCH_CONDITIONAL: 5.62
BRANCH_DIRECT_CALL: 0
BRANCH_INDIRECT_CALL: 0
BRANCH_RETURN: 0

LLC TOTAL        ACCESS:     584200 HIT:      14924 MISS:     569276
LLC LOAD         ACCESS:     554609 HIT:         16 MISS:     554593
LLC RFO          ACCESS:      14595 HIT:          0 MISS:      14595
LLC PREFETCH     ACCESS:          0 HIT:          0 MISS:          0
LLC WRITE        ACCESS:      14708 HIT:      14660 MISS:         48
LLC TRANSLATION  ACCESS:        288 HIT:        248 MISS:         40
LLC PREFETCH REQUESTED:          0 ISSUED:          0 USEFUL:          0 USELESS:          0
LLC AVERAGE MISS LATENCY: 975.5 cycles
cpu0_DTLB TOTAL        ACCESS:    7849842 HIT:    7829448 MISS:      20394
cpu0_DTLB LOAD         ACCESS:    7849842 HIT:    7829448 MISS:      20394
cpu0_DTLB RFO          ACCESS:          0 HIT:          0 MISS:          0
cpu0_DTLB PREFETCH     ACCESS:          0 HIT:          0 MISS:          0
cpu0_DTLB WRITE        ACCESS:          0 HIT:          0 MISS:          0
cpu0_DTLB TRANSLATION  ACCESS:          0 HIT:          0 MISS:          0
cpu0_DTLB PREFETCH REQUESTED:          0 ISSUED:          0 USEFUL:          0 USELESS:          0
cpu0_DTLB AVERAGE MISS LATENCY: 84.16 cycles
cpu0_ITLB TOTAL        ACCESS:          0 HIT:          0 MISS:          0
cpu0_ITLB LOAD         ACCESS:          0 HIT:          0 MISS:          0
cpu0_ITLB RFO          ACCESS:          0 HIT:          0 MISS:          0
cpu0_ITLB PREFETCH     ACCESS:          0 HIT:          0 MISS:          0
cpu0_ITLB WRITE        ACCESS:          0 HIT:          0 MISS:          0
cpu0_ITLB TRANSLATION  ACCESS:          0 HIT:          0 MISS:          0
cpu0_ITLB PREFETCH REQUESTED:          0 ISSUED:          0 USEFUL:          0 USELESS:          0
cpu0_ITLB AVERAGE MISS LATENCY: -nan cycles
cpu0_L1D TOTAL        ACCESS:    9381204 HIT:    8157462 MISS:    1223742
cpu0_L1D LOAD         ACCESS:    8670973 HIT:    7501193 MISS:    1169780
cpu0_L1D RFO          ACCESS:          0 HIT:          0 MISS:          0
cpu0_L1D PREFETCH     ACCESS:          0 HIT:          0 MISS:          0
cpu0_L1D WRITE        ACCESS:     701574 HIT:     656240 MISS:      45334
cpu0_L1D TRANSLATION  ACCESS:       8657 HIT:         29 MISS:       8628
cpu0_L1D PREFETCH REQUESTED:          0 ISSUED:          0 USEFUL:          0 USELESS:          0
cpu0_L1D AVERAGE MISS LATENCY: 294.9 cycles
cpu0_L1I TOTAL        ACCESS:          0 HIT:          0 MISS:          0
cpu0_L1I LOAD         ACCESS:          0 HIT:          0 MISS:          0
cpu0_L1I RFO          ACCESS:          0 HIT:          0 MISS:          0
cpu0_L1I PREFETCH     ACCESS:          0 HIT:          0 MISS:          0
cpu0_L1I WRITE        ACCESS:          0 HIT:          0 MISS:          0
cpu0_L1I TRANSLATION  ACCESS:          0 HIT:          0 MISS:          0
cpu0_L1I PREFETCH REQUESTED:          0 ISSUED:          0 USEFUL:          0 USELESS:          0
cpu0_L1I AVERAGE MISS LATENCY: -nan cycles
cpu0_L2C TOTAL        ACCESS:     628008 HIT:      58408 MISS:     569600
cpu0_L2C LOAD         ACCESS:     588153 HIT:      33544 MISS:     554609
cpu0_L2C RFO          ACCESS:      15019 HIT:        424 MISS:      14595
cpu0_L2C PREFETCH     ACCESS:          0 HIT:          0 MISS:          0
cpu0_L2C WRITE        ACCESS:      16208 HIT:      16100 MISS:        108
cpu0_L2C TRANSLATION  ACCESS:       8628 HIT:       8340 MISS:        288
cpu0_L2C PREFETCH REQUESTED:          0 ISSUED:          0 USEFUL:          0 USELESS:          0
cpu0_L2C AVERAGE MISS LATENCY: 996 cycles
cpu0_STLB TOTAL        ACCESS:       8899 HIT:        257 MISS:       8642
cpu0_STLB LOAD         ACCESS:       8899 HIT:        257 MISS:       8642
cpu0_STLB RFO          ACCESS:          0 HIT:          0 MISS:          0
cpu0_STLB PREFETCH     ACCESS:          0 HIT:          0 MISS:          0
cpu0_STLB WRITE        ACCESS:          0 HIT:          0 MISS:          0
cpu0_STLB TRANSLATION  ACCESS:          0 HIT:          0 MISS:          0
cpu0_STLB PREFETCH REQUESTED:          0 ISSUED:          0 USEFUL:          0 USELESS:          0
cpu0_STLB AVERAGE MISS LATENCY: 254.2 cycles

DRAM Statistics

Channel 0 RQ ROW_BUFFER_HIT:     402581
  ROW_BUFFER_MISS:     166646
 AVG DBUS CONGESTED CYCLE: 3.792
WQ ROW_BUFFER_HIT: Channel 0 
  ROW_BUFFER_MISS:       7784
  FULL:       6769
