WARNING: physical memory size is smaller than virtual memory size.

*** ChampSim Multicore Out-of-Order Simulator ***
Warmup Instructions: 25000000
Simulation Instructions: 25000000
Number of CPUs: 1
Page size: 4096

Off-chip DRAM Size: 4 GiB Channels: 1 Width: 64-bit Data Race: 800 MT/s
Heartbeat CPU 0 instructions: 10000002 cycles: 2575066 heartbeat IPC: 3.883 cumulative IPC: 3.883 (Simulation time: 00 hr 00 min 38 sec)
Heartbeat CPU 0 instructions: 20000000 cycles: 5149914 heartbeat IPC: 3.884 cumulative IPC: 3.884 (Simulation time: 00 hr 01 min 19 sec)
Warmup finished CPU 0 instructions: 25000002 cycles: 6437378 cumulative IPC: 3.884 (Simulation time: 00 hr 01 min 40 sec)
Warmup complete CPU 0 instructions: 25000002 cycles: 6437378 cumulative IPC: 3.884 (Simulation time: 00 hr 01 min 40 sec)
Heartbeat CPU 0 instructions: 30000003 cycles: 15853502 heartbeat IPC: 0.9343 cumulative IPC: 0.531 (Simulation time: 00 hr 03 min 11 sec)
Heartbeat CPU 0 instructions: 40000001 cycles: 34710279 heartbeat IPC: 0.5303 cumulative IPC: 0.5305 (Simulation time: 00 hr 06 min 24 sec)
Heartbeat CPU 0 instructions: 50000000 cycles: 53643498 heartbeat IPC: 0.5282 cumulative IPC: 0.5296 (Simulation time: 00 hr 09 min 33 sec)
Simulation finished CPU 0 instructions: 25000002 cycles: 47206122 cumulative IPC: 0.5296 (Simulation time: 00 hr 09 min 33 sec)
Simulation complete CPU 0 instructions: 25000002 cycles: 47206122 cumulative IPC: 0.5296 (Simulation time: 00 hr 09 min 33 sec)

ChampSim completed all CPUs

=== Simulation ===
CPU 0 runs ./traces/bwaves_1861B.trace.xz
Region of Interest Statistics

CPU 0 cumulative IPC: 0.5296 instructions: 25000002 cycles: 47206122
CPU 0 Branch Prediction Accuracy: 81.22% MPKI: 5.619 Average ROB Occupancy at Mispredict: 261.4
Branch type MPKI
BRANCH_DIRECT_JUMP: 0
BRANCH_INDIRECT: 0
BRANCH_CONDITIONAL: 5.62
BRANCH_DIRECT_CALL: 0
BRANCH_INDIRECT_CALL: 0
BRANCH_RETURN: 0

LLC TOTAL        ACCESS:     610350 HIT:      35121 MISS:     575229
LLC LOAD         ACCESS:     286172 HIT:      15791 MISS:     270381
LLC RFO          ACCESS:      14595 HIT:          0 MISS:      14595
LLC PREFETCH     ACCESS:     294512 HIT:       4348 MISS:     290164
LLC WRITE        ACCESS:      14720 HIT:      14674 MISS:         46
LLC TRANSLATION  ACCESS:        351 HIT:        308 MISS:         43
LLC PREFETCH REQUESTED:          0 ISSUED:          0 USEFUL:          0 USELESS:          0
LLC AVERAGE MISS LATENCY: 1017 cycles
cpu0_DTLB TOTAL        ACCESS:    7908778 HIT:    7887382 MISS:      21396
cpu0_DTLB LOAD         ACCESS:    7908778 HIT:    7887382 MISS:      21396
cpu0_DTLB RFO          ACCESS:          0 HIT:          0 MISS:          0
cpu0_DTLB PREFETCH     ACCESS:          0 HIT:          0 MISS:          0
cpu0_DTLB WRITE        ACCESS:          0 HIT:          0 MISS:          0
cpu0_DTLB TRANSLATION  ACCESS:          0 HIT:          0 MISS:          0
cpu0_DTLB PREFETCH REQUESTED:          0 ISSUED:          0 USEFUL:          0 USELESS:          0
cpu0_DTLB AVERAGE MISS LATENCY: 69.6 cycles
cpu0_ITLB TOTAL        ACCESS:          0 HIT:          0 MISS:          0
cpu0_ITLB LOAD         ACCESS:          0 HIT:          0 MISS:          0
cpu0_ITLB RFO          ACCESS:          0 HIT:          0 MISS:          0
cpu0_ITLB PREFETCH     ACCESS:          0 HIT:          0 MISS:          0
cpu0_ITLB WRITE        ACCESS:          0 HIT:          0 MISS:          0
cpu0_ITLB TRANSLATION  ACCESS:          0 HIT:          0 MISS:          0
cpu0_ITLB PREFETCH REQUESTED:          0 ISSUED:          0 USEFUL:          0 USELESS:          0
cpu0_ITLB AVERAGE MISS LATENCY: -nan cycles
cpu0_L1D TOTAL        ACCESS:   11996008 HIT:   10391639 MISS:    1604369
cpu0_L1D LOAD         ACCESS:    8731454 HIT:    7788820 MISS:     942634
cpu0_L1D RFO          ACCESS:          0 HIT:          0 MISS:          0
cpu0_L1D PREFETCH     ACCESS:    2552657 HIT:    1951623 MISS:     601034
cpu0_L1D WRITE        ACCESS:     703240 HIT:     651167 MISS:      52073
cpu0_L1D TRANSLATION  ACCESS:       8657 HIT:         29 MISS:       8628
cpu0_L1D PREFETCH REQUESTED:   12808345 ISSUED:    2552657 USEFUL:     227288 USELESS:      10643
cpu0_L1D AVERAGE MISS LATENCY: 207.8 cycles
cpu0_L1I TOTAL        ACCESS:          0 HIT:          0 MISS:          0
cpu0_L1I LOAD         ACCESS:          0 HIT:          0 MISS:          0
cpu0_L1I RFO          ACCESS:          0 HIT:          0 MISS:          0
cpu0_L1I PREFETCH     ACCESS:          0 HIT:          0 MISS:          0
cpu0_L1I WRITE        ACCESS:          0 HIT:          0 MISS:          0
cpu0_L1I TRANSLATION  ACCESS:          0 HIT:          0 MISS:          0
cpu0_L1I PREFETCH REQUESTED:          0 ISSUED:          0 USEFUL:          0 USELESS:          0
cpu0_L1I AVERAGE MISS LATENCY: -nan cycles
cpu0_L2C TOTAL        ACCESS:     834524 HIT:     146053 MISS:     688471
cpu0_L2C LOAD         ACCESS:     367965 HIT:      56508 MISS:     311457
cpu0_L2C RFO          ACCESS:      14985 HIT:        390 MISS:      14595
cpu0_L2C PREFETCH     ACCESS:     427092 HIT:      65143 MISS:     361949
cpu0_L2C WRITE        ACCESS:      15854 HIT:      15735 MISS:        119
cpu0_L2C TRANSLATION  ACCESS:       8628 HIT:       8277 MISS:        351
cpu0_L2C PREFETCH REQUESTED:     189183 ISSUED:     189183 USEFUL:      80404 USELESS:      12827
cpu0_L2C AVERAGE MISS LATENCY: 809.8 cycles
cpu0_STLB TOTAL        ACCESS:       8899 HIT:        257 MISS:       8642
cpu0_STLB LOAD         ACCESS:       8899 HIT:        257 MISS:       8642
cpu0_STLB RFO          ACCESS:          0 HIT:          0 MISS:          0
cpu0_STLB PREFETCH     ACCESS:          0 HIT:          0 MISS:          0
cpu0_STLB WRITE        ACCESS:          0 HIT:          0 MISS:          0
cpu0_STLB TRANSLATION  ACCESS:          0 HIT:          0 MISS:          0
cpu0_STLB PREFETCH REQUESTED:          0 ISSUED:          0 USEFUL:          0 USELESS:          0
cpu0_STLB AVERAGE MISS LATENCY: 222.8 cycles

DRAM Statistics

Channel 0 RQ ROW_BUFFER_HIT:     401932
  ROW_BUFFER_MISS:     167749
 AVG DBUS CONGESTED CYCLE: 3.814
WQ ROW_BUFFER_HIT: Channel 0 
  ROW_BUFFER_MISS:       2097
  FULL:      12489
