WARNING: physical memory size is smaller than virtual memory size.

*** ChampSim Multicore Out-of-Order Simulator ***
Warmup Instructions: 25000000
Simulation Instructions: 25000000
Number of CPUs: 1
Page size: 4096

Off-chip DRAM Size: 4 GiB Channels: 1 Width: 64-bit Data Race: 800 MT/s
Heartbeat CPU 0 instructions: 10000001 cycles: 2511151 heartbeat IPC: 3.982 cumulative IPC: 3.982 (Simulation time: 00 hr 00 min 58 sec)
Heartbeat CPU 0 instructions: 20000002 cycles: 5071040 heartbeat IPC: 3.906 cumulative IPC: 3.944 (Simulation time: 00 hr 01 min 58 sec)
Warmup finished CPU 0 instructions: 25000001 cycles: 6387325 cumulative IPC: 3.914 (Simulation time: 00 hr 02 min 29 sec)
Warmup complete CPU 0 instructions: 25000001 cycles: 6387325 cumulative IPC: 3.914 (Simulation time: 00 hr 02 min 29 sec)
Heartbeat CPU 0 instructions: 30000001 cycles: 10969884 heartbeat IPC: 1.695 cumulative IPC: 1.091 (Simulation time: 00 hr 03 min 37 sec)
Heartbeat CPU 0 instructions: 40000000 cycles: 24482807 heartbeat IPC: 0.74 cumulative IPC: 0.8289 (Simulation time: 00 hr 06 min 42 sec)
Heartbeat CPU 0 instructions: 50000003 cycles: 38107780 heartbeat IPC: 0.7339 cumulative IPC: 0.7881 (Simulation time: 00 hr 09 min 53 sec)
Simulation finished CPU 0 instructions: 25000002 cycles: 31720456 cumulative IPC: 0.7881 (Simulation time: 00 hr 09 min 53 sec)
Simulation complete CPU 0 instructions: 25000002 cycles: 31720456 cumulative IPC: 0.7881 (Simulation time: 00 hr 09 min 53 sec)

ChampSim completed all CPUs

=== Simulation ===
CPU 0 runs ./traces/cactusADM_1039B.trace.xz
Region of Interest Statistics

CPU 0 cumulative IPC: 0.7881 instructions: 25000002 cycles: 31720456
CPU 0 Branch Prediction Accuracy: 98.22% MPKI: 0.03732 Average ROB Occupancy at Mispredict: 278
Branch type MPKI
BRANCH_DIRECT_JUMP: 0
BRANCH_INDIRECT: 0
BRANCH_CONDITIONAL: 0.0373
BRANCH_DIRECT_CALL: 0
BRANCH_INDIRECT_CALL: 0
BRANCH_RETURN: 0

LLC TOTAL        ACCESS:     302621 HIT:      66016 MISS:     236605
LLC LOAD         ACCESS:     158720 HIT:        361 MISS:     158359
LLC RFO          ACCESS:      67028 HIT:         14 MISS:      67014
LLC PREFETCH     ACCESS:          0 HIT:          0 MISS:          0
LLC WRITE        ACCESS:      65975 HIT:      65531 MISS:        444
LLC TRANSLATION  ACCESS:      10898 HIT:        110 MISS:      10788
LLC PREFETCH REQUESTED:          0 ISSUED:          0 USEFUL:          0 USELESS:          0
LLC AVERAGE MISS LATENCY: 806.4 cycles
cpu0_DTLB TOTAL        ACCESS:    6078010 HIT:    5471652 MISS:     606358
cpu0_DTLB LOAD         ACCESS:    6078010 HIT:    5471652 MISS:     606358
cpu0_DTLB RFO          ACCESS:          0 HIT:          0 MISS:          0
cpu0_DTLB PREFETCH     ACCESS:          0 HIT:          0 MISS:          0
cpu0_DTLB WRITE        ACCESS:          0 HIT:          0 MISS:          0
cpu0_DTLB TRANSLATION  ACCESS:          0 HIT:          0 MISS:          0
cpu0_DTLB PREFETCH REQUESTED:          0 ISSUED:          0 USEFUL:          0 USELESS:          0
cpu0_DTLB AVERAGE MISS LATENCY: 26.93 cycles
cpu0_ITLB TOTAL        ACCESS:    3587042 HIT:    3587042 MISS:          0
cpu0_ITLB LOAD         ACCESS:    3587042 HIT:    3587042 MISS:          0
cpu0_ITLB RFO          ACCESS:          0 HIT:          0 MISS:          0
cpu0_ITLB PREFETCH     ACCESS:          0 HIT:          0 MISS:          0
cpu0_ITLB WRITE        ACCESS:          0 HIT:          0 MISS:          0
cpu0_ITLB TRANSLATION  ACCESS:          0 HIT:          0 MISS:          0
cpu0_ITLB PREFETCH REQUESTED:          0 ISSUED:          0 USEFUL:          0 USELESS:          0
cpu0_ITLB AVERAGE MISS LATENCY: -nan cycles
cpu0_L1D TOTAL        ACCESS:    9201438 HIT:    8422491 MISS:     778947
cpu0_L1D LOAD         ACCESS:    6040013 HIT:    5702039 MISS:     337974
cpu0_L1D RFO          ACCESS:          0 HIT:          0 MISS:          0
cpu0_L1D PREFETCH     ACCESS:          0 HIT:          0 MISS:          0
cpu0_L1D WRITE        ACCESS:    2918326 HIT:    2603859 MISS:     314467
cpu0_L1D TRANSLATION  ACCESS:     243099 HIT:     116593 MISS:     126506
cpu0_L1D PREFETCH REQUESTED:          0 ISSUED:          0 USEFUL:          0 USELESS:          0
cpu0_L1D AVERAGE MISS LATENCY: 229.4 cycles
cpu0_L1I TOTAL        ACCESS:    4683203 HIT:    4683203 MISS:          0
cpu0_L1I LOAD         ACCESS:    4683203 HIT:    4683203 MISS:          0
cpu0_L1I RFO          ACCESS:          0 HIT:          0 MISS:          0
cpu0_L1I PREFETCH     ACCESS:          0 HIT:          0 MISS:          0
cpu0_L1I WRITE        ACCESS:          0 HIT:          0 MISS:          0
cpu0_L1I TRANSLATION  ACCESS:          0 HIT:          0 MISS:          0
cpu0_L1I PREFETCH REQUESTED:          0 ISSUED:          0 USEFUL:          0 USELESS:          0
cpu0_L1I AVERAGE MISS LATENCY: -nan cycles
cpu0_L2C TOTAL        ACCESS:     553402 HIT:     316659 MISS:     236743
cpu0_L2C LOAD         ACCESS:     286723 HIT:     128003 MISS:     158720
cpu0_L2C RFO          ACCESS:      69097 HIT:       2069 MISS:      67028
cpu0_L2C PREFETCH     ACCESS:          0 HIT:          0 MISS:          0
cpu0_L2C WRITE        ACCESS:      71108 HIT:      71011 MISS:         97
cpu0_L2C TRANSLATION  ACCESS:     126474 HIT:     115576 MISS:      10898
cpu0_L2C PREFETCH REQUESTED:          0 ISSUED:          0 USEFUL:          0 USELESS:          0
cpu0_L2C AVERAGE MISS LATENCY: 827 cycles
cpu0_STLB TOTAL        ACCESS:     440608 HIT:     310847 MISS:     129761
cpu0_STLB LOAD         ACCESS:     440608 HIT:     310847 MISS:     129761
cpu0_STLB RFO          ACCESS:          0 HIT:          0 MISS:          0
cpu0_STLB PREFETCH     ACCESS:          0 HIT:          0 MISS:          0
cpu0_STLB WRITE        ACCESS:          0 HIT:          0 MISS:          0
cpu0_STLB TRANSLATION  ACCESS:          0 HIT:          0 MISS:          0
cpu0_STLB PREFETCH REQUESTED:          0 ISSUED:          0 USEFUL:          0 USELESS:          0
cpu0_STLB AVERAGE MISS LATENCY: 123.8 cycles

DRAM Statistics

Channel 0 RQ ROW_BUFFER_HIT:      35238
  ROW_BUFFER_MISS:     200923
 AVG DBUS CONGESTED CYCLE: 3.93
WQ ROW_BUFFER_HIT: Channel 0 
  ROW_BUFFER_MISS:       4307
  FULL:      61078
