WARNING: physical memory size is smaller than virtual memory size.

*** ChampSim Multicore Out-of-Order Simulator ***
Warmup Instructions: 25000000
Simulation Instructions: 25000000
Number of CPUs: 1
Page size: 4096

Off-chip DRAM Size: 4 GiB Channels: 1 Width: 64-bit Data Race: 800 MT/s
Heartbeat CPU 0 instructions: 10000000 cycles: 2567549 heartbeat IPC: 3.895 cumulative IPC: 3.895 (Simulation time: 00 hr 00 min 59 sec)
Heartbeat CPU 0 instructions: 20000000 cycles: 5070586 heartbeat IPC: 3.995 cumulative IPC: 3.944 (Simulation time: 00 hr 01 min 58 sec)
Warmup finished CPU 0 instructions: 25000001 cycles: 6385867 cumulative IPC: 3.915 (Simulation time: 00 hr 02 min 28 sec)
Warmup complete CPU 0 instructions: 25000001 cycles: 6385867 cumulative IPC: 3.915 (Simulation time: 00 hr 02 min 28 sec)
Heartbeat CPU 0 instructions: 30000000 cycles: 10694065 heartbeat IPC: 1.778 cumulative IPC: 1.161 (Simulation time: 00 hr 03 min 35 sec)
Heartbeat CPU 0 instructions: 40000002 cycles: 24859738 heartbeat IPC: 0.7059 cumulative IPC: 0.812 (Simulation time: 00 hr 06 min 52 sec)
Heartbeat CPU 0 instructions: 50000002 cycles: 38565105 heartbeat IPC: 0.7296 cumulative IPC: 0.7769 (Simulation time: 00 hr 10 min 03 sec)
Simulation finished CPU 0 instructions: 25000001 cycles: 32179239 cumulative IPC: 0.7769 (Simulation time: 00 hr 10 min 03 sec)
Simulation complete CPU 0 instructions: 25000001 cycles: 32179239 cumulative IPC: 0.7769 (Simulation time: 00 hr 10 min 03 sec)

ChampSim completed all CPUs

=== Simulation ===
CPU 0 runs ./traces/cactusADM_1495B.trace.xz
Region of Interest Statistics

CPU 0 cumulative IPC: 0.7769 instructions: 25000001 cycles: 32179239
CPU 0 Branch Prediction Accuracy: 98.22% MPKI: 0.03736 Average ROB Occupancy at Mispredict: 278.4
Branch type MPKI
BRANCH_DIRECT_JUMP: 0
BRANCH_INDIRECT: 0
BRANCH_CONDITIONAL: 0.0374
BRANCH_DIRECT_CALL: 0
BRANCH_INDIRECT_CALL: 0
BRANCH_RETURN: 0

LLC TOTAL        ACCESS:     304209 HIT:      67157 MISS:     237052
LLC LOAD         ACCESS:     158889 HIT:        339 MISS:     158550
LLC RFO          ACCESS:      67026 HIT:        109 MISS:      66917
LLC PREFETCH     ACCESS:          0 HIT:          0 MISS:          0
LLC WRITE        ACCESS:      67064 HIT:      66614 MISS:        450
LLC TRANSLATION  ACCESS:      11230 HIT:         95 MISS:      11135
LLC PREFETCH REQUESTED:          0 ISSUED:          0 USEFUL:          0 USELESS:          0
LLC AVERAGE MISS LATENCY: 835.2 cycles
cpu0_DTLB TOTAL        ACCESS:    5956373 HIT:    5392655 MISS:     563718
cpu0_DTLB LOAD         ACCESS:    5956373 HIT:    5392655 MISS:     563718
cpu0_DTLB RFO          ACCESS:          0 HIT:          0 MISS:          0
cpu0_DTLB PREFETCH     ACCESS:          0 HIT:          0 MISS:          0
cpu0_DTLB WRITE        ACCESS:          0 HIT:          0 MISS:          0
cpu0_DTLB TRANSLATION  ACCESS:          0 HIT:          0 MISS:          0
cpu0_DTLB PREFETCH REQUESTED:          0 ISSUED:          0 USEFUL:          0 USELESS:          0
cpu0_DTLB AVERAGE MISS LATENCY: 29.3 cycles
cpu0_ITLB TOTAL        ACCESS:    3587683 HIT:    3587683 MISS:          0
cpu0_ITLB LOAD         ACCESS:    3587683 HIT:    3587683 MISS:          0
cpu0_ITLB RFO          ACCESS:          0 HIT:          0 MISS:          0
cpu0_ITLB PREFETCH     ACCESS:          0 HIT:          0 MISS:          0
cpu0_ITLB WRITE        ACCESS:          0 HIT:          0 MISS:          0
cpu0_ITLB TRANSLATION  ACCESS:          0 HIT:          0 MISS:          0
cpu0_ITLB PREFETCH REQUESTED:          0 ISSUED:          0 USEFUL:          0 USELESS:          0
cpu0_ITLB AVERAGE MISS LATENCY: -nan cycles
cpu0_L1D TOTAL        ACCESS:    9233962 HIT:    8434491 MISS:     799471
cpu0_L1D LOAD         ACCESS:    6075343 HIT:    5732877 MISS:     342466
cpu0_L1D RFO          ACCESS:          0 HIT:          0 MISS:          0
cpu0_L1D PREFETCH     ACCESS:          0 HIT:          0 MISS:          0
cpu0_L1D WRITE        ACCESS:    2918312 HIT:    2589183 MISS:     329129
cpu0_L1D TRANSLATION  ACCESS:     240307 HIT:     112431 MISS:     127876
cpu0_L1D PREFETCH REQUESTED:          0 ISSUED:          0 USEFUL:          0 USELESS:          0
cpu0_L1D AVERAGE MISS LATENCY: 230.9 cycles
cpu0_L1I TOTAL        ACCESS:    4685688 HIT:    4685688 MISS:          0
cpu0_L1I LOAD         ACCESS:    4685688 HIT:    4685688 MISS:          0
cpu0_L1I RFO          ACCESS:          0 HIT:          0 MISS:          0
cpu0_L1I PREFETCH     ACCESS:          0 HIT:          0 MISS:          0
cpu0_L1I WRITE        ACCESS:          0 HIT:          0 MISS:          0
cpu0_L1I TRANSLATION  ACCESS:          0 HIT:          0 MISS:          0
cpu0_L1I PREFETCH REQUESTED:          0 ISSUED:          0 USEFUL:          0 USELESS:          0
cpu0_L1I AVERAGE MISS LATENCY: -nan cycles
cpu0_L2C TOTAL        ACCESS:     569251 HIT:     332010 MISS:     237241
cpu0_L2C LOAD         ACCESS:     287583 HIT:     128694 MISS:     158889
cpu0_L2C RFO          ACCESS:      76056 HIT:       9030 MISS:      67026
cpu0_L2C PREFETCH     ACCESS:          0 HIT:          0 MISS:          0
cpu0_L2C WRITE        ACCESS:      78263 HIT:      78167 MISS:         96
cpu0_L2C TRANSLATION  ACCESS:     127349 HIT:     116119 MISS:      11230
cpu0_L2C PREFETCH REQUESTED:          0 ISSUED:          0 USEFUL:          0 USELESS:          0
cpu0_L2C AVERAGE MISS LATENCY: 855.5 cycles
cpu0_STLB TOTAL        ACCESS:     404463 HIT:     275636 MISS:     128827
cpu0_STLB LOAD         ACCESS:     404463 HIT:     275636 MISS:     128827
cpu0_STLB RFO          ACCESS:          0 HIT:          0 MISS:          0
cpu0_STLB PREFETCH     ACCESS:          0 HIT:          0 MISS:          0
cpu0_STLB WRITE        ACCESS:          0 HIT:          0 MISS:          0
cpu0_STLB TRANSLATION  ACCESS:          0 HIT:          0 MISS:          0
cpu0_STLB PREFETCH REQUESTED:          0 ISSUED:          0 USEFUL:          0 USELESS:          0
cpu0_STLB AVERAGE MISS LATENCY: 129.2 cycles

DRAM Statistics

Channel 0 RQ ROW_BUFFER_HIT:      33860
  ROW_BUFFER_MISS:     202741
 AVG DBUS CONGESTED CYCLE: 3.94
WQ ROW_BUFFER_HIT: Channel 0 
  ROW_BUFFER_MISS:       3767
  FULL:      61248
