WARNING: physical memory size is smaller than virtual memory size.

*** ChampSim Multicore Out-of-Order Simulator ***
Warmup Instructions: 25000000
Simulation Instructions: 25000000
Number of CPUs: 1
Page size: 4096

Off-chip DRAM Size: 4 GiB Channels: 1 Width: 64-bit Data Race: 800 MT/s
Heartbeat CPU 0 instructions: 10000003 cycles: 2514541 heartbeat IPC: 3.977 cumulative IPC: 3.977 (Simulation time: 00 hr 00 min 57 sec)
Heartbeat CPU 0 instructions: 20000002 cycles: 5072029 heartbeat IPC: 3.91 cumulative IPC: 3.943 (Simulation time: 00 hr 01 min 55 sec)
Warmup finished CPU 0 instructions: 25000003 cycles: 6389616 cumulative IPC: 3.913 (Simulation time: 00 hr 02 min 27 sec)
Warmup complete CPU 0 instructions: 25000003 cycles: 6389616 cumulative IPC: 3.913 (Simulation time: 00 hr 02 min 27 sec)
Heartbeat CPU 0 instructions: 30000003 cycles: 11156232 heartbeat IPC: 1.644 cumulative IPC: 1.049 (Simulation time: 00 hr 03 min 37 sec)
Heartbeat CPU 0 instructions: 40000002 cycles: 25226942 heartbeat IPC: 0.7107 cumulative IPC: 0.7963 (Simulation time: 00 hr 06 min 54 sec)
Heartbeat CPU 0 instructions: 50000001 cycles: 38959340 heartbeat IPC: 0.7282 cumulative IPC: 0.7676 (Simulation time: 00 hr 10 min 06 sec)
Simulation finished CPU 0 instructions: 25000002 cycles: 32569726 cumulative IPC: 0.7676 (Simulation time: 00 hr 10 min 06 sec)
Simulation complete CPU 0 instructions: 25000002 cycles: 32569726 cumulative IPC: 0.7676 (Simulation time: 00 hr 10 min 06 sec)

ChampSim completed all CPUs

=== Simulation ===
CPU 0 runs ./traces/cactusADM_734B.trace.xz
Region of Interest Statistics

CPU 0 cumulative IPC: 0.7676 instructions: 25000002 cycles: 32569726
CPU 0 Branch Prediction Accuracy: 98.22% MPKI: 0.03732 Average ROB Occupancy at Mispredict: 278.4
Branch type MPKI
BRANCH_DIRECT_JUMP: 0
BRANCH_INDIRECT: 0
BRANCH_CONDITIONAL: 0.0373
BRANCH_DIRECT_CALL: 0
BRANCH_INDIRECT_CALL: 0
BRANCH_RETURN: 0

LLC TOTAL        ACCESS:     303735 HIT:      65962 MISS:     237773
LLC LOAD         ACCESS:     158868 HIT:         75 MISS:     158793
LLC RFO          ACCESS:      67026 HIT:          8 MISS:      67018
LLC PREFETCH     ACCESS:          0 HIT:          0 MISS:          0
LLC WRITE        ACCESS:      66025 HIT:      65655 MISS:        370
LLC TRANSLATION  ACCESS:      11816 HIT:        224 MISS:      11592
LLC PREFETCH REQUESTED:          0 ISSUED:          0 USEFUL:          0 USELESS:          0
LLC AVERAGE MISS LATENCY: 831.5 cycles
cpu0_DTLB TOTAL        ACCESS:    5976824 HIT:    5443378 MISS:     533446
cpu0_DTLB LOAD         ACCESS:    5976824 HIT:    5443378 MISS:     533446
cpu0_DTLB RFO          ACCESS:          0 HIT:          0 MISS:          0
cpu0_DTLB PREFETCH     ACCESS:          0 HIT:          0 MISS:          0
cpu0_DTLB WRITE        ACCESS:          0 HIT:          0 MISS:          0
cpu0_DTLB TRANSLATION  ACCESS:          0 HIT:          0 MISS:          0
cpu0_DTLB PREFETCH REQUESTED:          0 ISSUED:          0 USEFUL:          0 USELESS:          0
cpu0_DTLB AVERAGE MISS LATENCY: 32.86 cycles
cpu0_ITLB TOTAL        ACCESS:    3590982 HIT:    3590982 MISS:          0
cpu0_ITLB LOAD         ACCESS:    3590982 HIT:    3590982 MISS:          0
cpu0_ITLB RFO          ACCESS:          0 HIT:          0 MISS:          0
cpu0_ITLB PREFETCH     ACCESS:          0 HIT:          0 MISS:          0
cpu0_ITLB WRITE        ACCESS:          0 HIT:          0 MISS:          0
cpu0_ITLB TRANSLATION  ACCESS:          0 HIT:          0 MISS:          0
cpu0_ITLB PREFETCH REQUESTED:          0 ISSUED:          0 USEFUL:          0 USELESS:          0
cpu0_ITLB AVERAGE MISS LATENCY: -nan cycles
cpu0_L1D TOTAL        ACCESS:    9263543 HIT:    8469865 MISS:     793678
cpu0_L1D LOAD         ACCESS:    6094778 HIT:    5741044 MISS:     353734
cpu0_L1D RFO          ACCESS:          0 HIT:          0 MISS:          0
cpu0_L1D PREFETCH     ACCESS:          0 HIT:          0 MISS:          0
cpu0_L1D WRITE        ACCESS:    2918317 HIT:    2609192 MISS:     309125
cpu0_L1D TRANSLATION  ACCESS:     250448 HIT:     119629 MISS:     130819
cpu0_L1D PREFETCH REQUESTED:          0 ISSUED:          0 USEFUL:          0 USELESS:          0
cpu0_L1D AVERAGE MISS LATENCY: 232 cycles
cpu0_L1I TOTAL        ACCESS:    4682581 HIT:    4682581 MISS:          0
cpu0_L1I LOAD         ACCESS:    4682581 HIT:    4682581 MISS:          0
cpu0_L1I RFO          ACCESS:          0 HIT:          0 MISS:          0
cpu0_L1I PREFETCH     ACCESS:          0 HIT:          0 MISS:          0
cpu0_L1I WRITE        ACCESS:          0 HIT:          0 MISS:          0
cpu0_L1I TRANSLATION  ACCESS:          0 HIT:          0 MISS:          0
cpu0_L1I PREFETCH REQUESTED:          0 ISSUED:          0 USEFUL:          0 USELESS:          0
cpu0_L1I AVERAGE MISS LATENCY: -nan cycles
cpu0_L2C TOTAL        ACCESS:     560660 HIT:     322849 MISS:     237811
cpu0_L2C LOAD         ACCESS:     291572 HIT:     132704 MISS:     158868
cpu0_L2C RFO          ACCESS:      68072 HIT:       1046 MISS:      67026
cpu0_L2C PREFETCH     ACCESS:          0 HIT:          0 MISS:          0
cpu0_L2C WRITE        ACCESS:      70247 HIT:      70146 MISS:        101
cpu0_L2C TRANSLATION  ACCESS:     130769 HIT:     118953 MISS:      11816
cpu0_L2C PREFETCH REQUESTED:          0 ISSUED:          0 USEFUL:          0 USELESS:          0
cpu0_L2C AVERAGE MISS LATENCY: 852.3 cycles
cpu0_STLB TOTAL        ACCESS:     396678 HIT:     262788 MISS:     133890
cpu0_STLB LOAD         ACCESS:     396678 HIT:     262788 MISS:     133890
cpu0_STLB RFO          ACCESS:          0 HIT:          0 MISS:          0
cpu0_STLB PREFETCH     ACCESS:          0 HIT:          0 MISS:          0
cpu0_STLB WRITE        ACCESS:          0 HIT:          0 MISS:          0
cpu0_STLB TRANSLATION  ACCESS:          0 HIT:          0 MISS:          0
cpu0_STLB PREFETCH REQUESTED:          0 ISSUED:          0 USEFUL:          0 USELESS:          0
cpu0_STLB AVERAGE MISS LATENCY: 134.7 cycles

DRAM Statistics

Channel 0 RQ ROW_BUFFER_HIT:      32503
  ROW_BUFFER_MISS:     204900
 AVG DBUS CONGESTED CYCLE: 3.944
WQ ROW_BUFFER_HIT: Channel 0 
  ROW_BUFFER_MISS:       3609
  FULL:      62289
