WARNING: physical memory size is smaller than virtual memory size.

*** ChampSim Multicore Out-of-Order Simulator ***
Warmup Instructions: 25000000
Simulation Instructions: 25000000
Number of CPUs: 1
Page size: 4096

Off-chip DRAM Size: 4 GiB Channels: 1 Width: 64-bit Data Race: 800 MT/s
Heartbeat CPU 0 instructions: 10000003 cycles: 2534690 heartbeat IPC: 3.945 cumulative IPC: 3.945 (Simulation time: 00 hr 00 min 43 sec)
Heartbeat CPU 0 instructions: 20000002 cycles: 5035011 heartbeat IPC: 3.999 cumulative IPC: 3.972 (Simulation time: 00 hr 01 min 24 sec)
Warmup finished CPU 0 instructions: 25000001 cycles: 6285095 cumulative IPC: 3.978 (Simulation time: 00 hr 01 min 45 sec)
Warmup complete CPU 0 instructions: 25000001 cycles: 6285095 cumulative IPC: 3.978 (Simulation time: 00 hr 01 min 45 sec)
Heartbeat CPU 0 instructions: 30000002 cycles: 7828630 heartbeat IPC: 3.58 cumulative IPC: 3.239 (Simulation time: 00 hr 02 min 11 sec)
Heartbeat CPU 0 instructions: 40000000 cycles: 11023028 heartbeat IPC: 3.13 cumulative IPC: 3.166 (Simulation time: 00 hr 03 min 10 sec)
Heartbeat CPU 0 instructions: 50000000 cycles: 15276206 heartbeat IPC: 2.351 cumulative IPC: 2.781 (Simulation time: 00 hr 04 min 14 sec)
Simulation finished CPU 0 instructions: 25000003 cycles: 8991113 cumulative IPC: 2.781 (Simulation time: 00 hr 04 min 14 sec)
Simulation complete CPU 0 instructions: 25000003 cycles: 8991113 cumulative IPC: 2.781 (Simulation time: 00 hr 04 min 14 sec)

ChampSim completed all CPUs

=== Simulation ===
CPU 0 runs ./traces/calculix_3812B.trace.xz
Region of Interest Statistics

CPU 0 cumulative IPC: 2.781 instructions: 25000003 cycles: 8991113
CPU 0 Branch Prediction Accuracy: 97.86% MPKI: 1.848 Average ROB Occupancy at Mispredict: 146.7
Branch type MPKI
BRANCH_DIRECT_JUMP: 0.0127
BRANCH_INDIRECT: 0.00208
BRANCH_CONDITIONAL: 1.83
BRANCH_DIRECT_CALL: 0.00068
BRANCH_INDIRECT_CALL: 0
BRANCH_RETURN: 0.00076

LLC TOTAL        ACCESS:     229593 HIT:     197628 MISS:      31965
LLC LOAD         ACCESS:      97343 HIT:      87169 MISS:      10174
LLC RFO          ACCESS:      28315 HIT:       7241 MISS:      21074
LLC PREFETCH     ACCESS:          0 HIT:          0 MISS:          0
LLC WRITE        ACCESS:     103859 HIT:     103191 MISS:        668
LLC TRANSLATION  ACCESS:         76 HIT:         27 MISS:         49
LLC PREFETCH REQUESTED:          0 ISSUED:          0 USEFUL:          0 USELESS:          0
LLC AVERAGE MISS LATENCY: 758.8 cycles
cpu0_DTLB TOTAL        ACCESS:    4864858 HIT:    4843479 MISS:      21379
cpu0_DTLB LOAD         ACCESS:    4864858 HIT:    4843479 MISS:      21379
cpu0_DTLB RFO          ACCESS:          0 HIT:          0 MISS:          0
cpu0_DTLB PREFETCH     ACCESS:          0 HIT:          0 MISS:          0
cpu0_DTLB WRITE        ACCESS:          0 HIT:          0 MISS:          0
cpu0_DTLB TRANSLATION  ACCESS:          0 HIT:          0 MISS:          0
cpu0_DTLB PREFETCH REQUESTED:          0 ISSUED:          0 USEFUL:          0 USELESS:          0
cpu0_DTLB AVERAGE MISS LATENCY: 9.457 cycles
cpu0_ITLB TOTAL        ACCESS:      22177 HIT:      22135 MISS:         42
cpu0_ITLB LOAD         ACCESS:      22177 HIT:      22135 MISS:         42
cpu0_ITLB RFO          ACCESS:          0 HIT:          0 MISS:          0
cpu0_ITLB PREFETCH     ACCESS:          0 HIT:          0 MISS:          0
cpu0_ITLB WRITE        ACCESS:          0 HIT:          0 MISS:          0
cpu0_ITLB TRANSLATION  ACCESS:          0 HIT:          0 MISS:          0
cpu0_ITLB PREFETCH REQUESTED:          0 ISSUED:          0 USEFUL:          0 USELESS:          0
cpu0_ITLB AVERAGE MISS LATENCY: 3.119 cycles
cpu0_L1D TOTAL        ACCESS:    6883610 HIT:    5552942 MISS:    1330668
cpu0_L1D LOAD         ACCESS:    4515879 HIT:    3344656 MISS:    1171223
cpu0_L1D RFO          ACCESS:          0 HIT:          0 MISS:          0
cpu0_L1D PREFETCH     ACCESS:          0 HIT:          0 MISS:          0
cpu0_L1D WRITE        ACCESS:    2367233 HIT:    2207915 MISS:     159318
cpu0_L1D TRANSLATION  ACCESS:        498 HIT:        371 MISS:        127
cpu0_L1D PREFETCH REQUESTED:          0 ISSUED:          0 USEFUL:          0 USELESS:          0
cpu0_L1D AVERAGE MISS LATENCY: 20.69 cycles
cpu0_L1I TOTAL        ACCESS:      24893 HIT:      23452 MISS:       1441
cpu0_L1I LOAD         ACCESS:      24893 HIT:      23452 MISS:       1441
cpu0_L1I RFO          ACCESS:          0 HIT:          0 MISS:          0
cpu0_L1I PREFETCH     ACCESS:          0 HIT:          0 MISS:          0
cpu0_L1I WRITE        ACCESS:          0 HIT:          0 MISS:          0
cpu0_L1I TRANSLATION  ACCESS:          0 HIT:          0 MISS:          0
cpu0_L1I PREFETCH REQUESTED:          0 ISSUED:          0 USEFUL:          0 USELESS:          0
cpu0_L1I AVERAGE MISS LATENCY: 46.03 cycles
cpu0_L2C TOTAL        ACCESS:     663052 HIT:     535653 MISS:     127399
cpu0_L2C LOAD         ACCESS:     359984 HIT:     262641 MISS:      97343
cpu0_L2C RFO          ACCESS:      32666 HIT:       4351 MISS:      28315
cpu0_L2C PREFETCH     ACCESS:          0 HIT:          0 MISS:          0
cpu0_L2C WRITE        ACCESS:     270275 HIT:     268610 MISS:       1665
cpu0_L2C TRANSLATION  ACCESS:        127 HIT:         51 MISS:         76
cpu0_L2C PREFETCH REQUESTED:          0 ISSUED:          0 USEFUL:          0 USELESS:          0
cpu0_L2C AVERAGE MISS LATENCY: 210.4 cycles
cpu0_STLB TOTAL        ACCESS:      12036 HIT:      11540 MISS:        496
cpu0_STLB LOAD         ACCESS:      12036 HIT:      11540 MISS:        496
cpu0_STLB RFO          ACCESS:          0 HIT:          0 MISS:          0
cpu0_STLB PREFETCH     ACCESS:          0 HIT:          0 MISS:          0
cpu0_STLB WRITE        ACCESS:          0 HIT:          0 MISS:          0
cpu0_STLB TRANSLATION  ACCESS:          0 HIT:          0 MISS:          0
cpu0_STLB PREFETCH REQUESTED:          0 ISSUED:          0 USEFUL:          0 USELESS:          0
cpu0_STLB AVERAGE MISS LATENCY: 286.1 cycles

DRAM Statistics

Channel 0 RQ ROW_BUFFER_HIT:      22848
  ROW_BUFFER_MISS:       8437
 AVG DBUS CONGESTED CYCLE: 3.968
WQ ROW_BUFFER_HIT: Channel 0 
  ROW_BUFFER_MISS:       1396
  FULL:       8435
