WARNING: physical memory size is smaller than virtual memory size.

*** ChampSim Multicore Out-of-Order Simulator ***
Warmup Instructions: 25000000
Simulation Instructions: 25000000
Number of CPUs: 1
Page size: 4096

Off-chip DRAM Size: 4 GiB Channels: 1 Width: 64-bit Data Race: 800 MT/s
Heartbeat CPU 0 instructions: 10000003 cycles: 2500434 heartbeat IPC: 3.999 cumulative IPC: 3.999 (Simulation time: 00 hr 00 min 43 sec)
Heartbeat CPU 0 instructions: 20000002 cycles: 5000628 heartbeat IPC: 4 cumulative IPC: 3.999 (Simulation time: 00 hr 01 min 27 sec)
Warmup finished CPU 0 instructions: 25000002 cycles: 6250837 cumulative IPC: 3.999 (Simulation time: 00 hr 01 min 47 sec)
Warmup complete CPU 0 instructions: 25000002 cycles: 6250837 cumulative IPC: 3.999 (Simulation time: 00 hr 01 min 47 sec)
Heartbeat CPU 0 instructions: 30000002 cycles: 8117994 heartbeat IPC: 3.208 cumulative IPC: 2.678 (Simulation time: 00 hr 02 min 17 sec)
Heartbeat CPU 0 instructions: 40000001 cycles: 11235889 heartbeat IPC: 3.207 cumulative IPC: 3.009 (Simulation time: 00 hr 03 min 17 sec)
Heartbeat CPU 0 instructions: 50000001 cycles: 14466855 heartbeat IPC: 3.095 cumulative IPC: 3.043 (Simulation time: 00 hr 04 min 14 sec)
Simulation finished CPU 0 instructions: 25000003 cycles: 8216020 cumulative IPC: 3.043 (Simulation time: 00 hr 04 min 14 sec)
Simulation complete CPU 0 instructions: 25000003 cycles: 8216020 cumulative IPC: 3.043 (Simulation time: 00 hr 04 min 14 sec)

ChampSim completed all CPUs

=== Simulation ===
CPU 0 runs ./traces/calculix_2655B.trace.xz
Region of Interest Statistics

CPU 0 cumulative IPC: 3.043 instructions: 25000003 cycles: 8216020
CPU 0 Branch Prediction Accuracy: 98.05% MPKI: 0.7955 Average ROB Occupancy at Mispredict: 275.8
Branch type MPKI
BRANCH_DIRECT_JUMP: 0.00068
BRANCH_INDIRECT: 0
BRANCH_CONDITIONAL: 0.795
BRANCH_DIRECT_CALL: 0
BRANCH_INDIRECT_CALL: 0
BRANCH_RETURN: 4e-05

LLC TOTAL        ACCESS:     227893 HIT:     193262 MISS:      34631
LLC LOAD         ACCESS:     203226 HIT:     168727 MISS:      34499
LLC RFO          ACCESS:        109 HIT:        107 MISS:          2
LLC PREFETCH     ACCESS:          0 HIT:          0 MISS:          0
LLC WRITE        ACCESS:      24381 HIT:      24346 MISS:         35
LLC TRANSLATION  ACCESS:        177 HIT:         82 MISS:         95
LLC PREFETCH REQUESTED:          0 ISSUED:          0 USEFUL:          0 USELESS:          0
LLC AVERAGE MISS LATENCY: 222.1 cycles
cpu0_DTLB TOTAL        ACCESS:    3526866 HIT:    3514930 MISS:      11936
cpu0_DTLB LOAD         ACCESS:    3526866 HIT:    3514930 MISS:      11936
cpu0_DTLB RFO          ACCESS:          0 HIT:          0 MISS:          0
cpu0_DTLB PREFETCH     ACCESS:          0 HIT:          0 MISS:          0
cpu0_DTLB WRITE        ACCESS:          0 HIT:          0 MISS:          0
cpu0_DTLB TRANSLATION  ACCESS:          0 HIT:          0 MISS:          0
cpu0_DTLB PREFETCH REQUESTED:          0 ISSUED:          0 USEFUL:          0 USELESS:          0
cpu0_DTLB AVERAGE MISS LATENCY: 9.448 cycles
cpu0_ITLB TOTAL        ACCESS:        924 HIT:        924 MISS:          0
cpu0_ITLB LOAD         ACCESS:        924 HIT:        924 MISS:          0
cpu0_ITLB RFO          ACCESS:          0 HIT:          0 MISS:          0
cpu0_ITLB PREFETCH     ACCESS:          0 HIT:          0 MISS:          0
cpu0_ITLB WRITE        ACCESS:          0 HIT:          0 MISS:          0
cpu0_ITLB TRANSLATION  ACCESS:          0 HIT:          0 MISS:          0
cpu0_ITLB PREFETCH REQUESTED:          0 ISSUED:          0 USEFUL:          0 USELESS:          0
cpu0_ITLB AVERAGE MISS LATENCY: -nan cycles
cpu0_L1D TOTAL        ACCESS:    5105383 HIT:    3862146 MISS:    1243237
cpu0_L1D LOAD         ACCESS:    4727428 HIT:    3488206 MISS:    1239222
cpu0_L1D RFO          ACCESS:          0 HIT:          0 MISS:          0
cpu0_L1D PREFETCH     ACCESS:          0 HIT:          0 MISS:          0
cpu0_L1D WRITE        ACCESS:     377408 HIT:     373758 MISS:       3650
cpu0_L1D TRANSLATION  ACCESS:        547 HIT:        182 MISS:        365
cpu0_L1D PREFETCH REQUESTED:          0 ISSUED:          0 USEFUL:          0 USELESS:          0
cpu0_L1D AVERAGE MISS LATENCY: 4.546 cycles
cpu0_L1I TOTAL        ACCESS:       1012 HIT:       1012 MISS:          0
cpu0_L1I LOAD         ACCESS:       1012 HIT:       1012 MISS:          0
cpu0_L1I RFO          ACCESS:          0 HIT:          0 MISS:          0
cpu0_L1I PREFETCH     ACCESS:          0 HIT:          0 MISS:          0
cpu0_L1I WRITE        ACCESS:          0 HIT:          0 MISS:          0
cpu0_L1I TRANSLATION  ACCESS:          0 HIT:          0 MISS:          0
cpu0_L1I PREFETCH REQUESTED:          0 ISSUED:          0 USEFUL:          0 USELESS:          0
cpu0_L1I AVERAGE MISS LATENCY: -nan cycles
cpu0_L2C TOTAL        ACCESS:     339987 HIT:     136429 MISS:     203558
cpu0_L2C LOAD         ACCESS:     308223 HIT:     104997 MISS:     203226
cpu0_L2C RFO          ACCESS:        960 HIT:        851 MISS:        109
cpu0_L2C PREFETCH     ACCESS:          0 HIT:          0 MISS:          0
cpu0_L2C WRITE        ACCESS:      30441 HIT:      30395 MISS:         46
cpu0_L2C TRANSLATION  ACCESS:        363 HIT:        186 MISS:        177
cpu0_L2C PREFETCH REQUESTED:          0 ISSUED:          0 USEFUL:          0 USELESS:          0
cpu0_L2C AVERAGE MISS LATENCY: 57.95 cycles
cpu0_STLB TOTAL        ACCESS:       4216 HIT:       3677 MISS:        539
cpu0_STLB LOAD         ACCESS:       4216 HIT:       3677 MISS:        539
cpu0_STLB RFO          ACCESS:          0 HIT:          0 MISS:          0
cpu0_STLB PREFETCH     ACCESS:          0 HIT:          0 MISS:          0
cpu0_STLB WRITE        ACCESS:          0 HIT:          0 MISS:          0
cpu0_STLB TRANSLATION  ACCESS:          0 HIT:          0 MISS:          0
cpu0_STLB PREFETCH REQUESTED:          0 ISSUED:          0 USEFUL:          0 USELESS:          0
cpu0_STLB AVERAGE MISS LATENCY: 272.6 cycles

DRAM Statistics

Channel 0 RQ ROW_BUFFER_HIT:      29946
  ROW_BUFFER_MISS:       4623
 AVG DBUS CONGESTED CYCLE: 3.804
WQ ROW_BUFFER_HIT: Channel 0 
  ROW_BUFFER_MISS:        208
  FULL:        731
