WARNING: physical memory size is smaller than virtual memory size.

*** ChampSim Multicore Out-of-Order Simulator ***
Warmup Instructions: 25000000
Simulation Instructions: 25000000
Number of CPUs: 1
Page size: 4096

Off-chip DRAM Size: 4 GiB Channels: 1 Width: 64-bit Data Race: 800 MT/s
Heartbeat CPU 0 instructions: 10000001 cycles: 2763021 heartbeat IPC: 3.619 cumulative IPC: 3.619 (Simulation time: 00 hr 01 min 02 sec)
Heartbeat CPU 0 instructions: 20000001 cycles: 5343901 heartbeat IPC: 3.875 cumulative IPC: 3.743 (Simulation time: 00 hr 02 min 03 sec)
Warmup finished CPU 0 instructions: 25000003 cycles: 6775806 cumulative IPC: 3.69 (Simulation time: 00 hr 02 min 35 sec)
Warmup complete CPU 0 instructions: 25000003 cycles: 6775806 cumulative IPC: 3.69 (Simulation time: 00 hr 02 min 35 sec)
Heartbeat CPU 0 instructions: 30000000 cycles: 27893316 heartbeat IPC: 0.4435 cumulative IPC: 0.2368 (Simulation time: 00 hr 05 min 50 sec)
Heartbeat CPU 0 instructions: 40000003 cycles: 62753868 heartbeat IPC: 0.2869 cumulative IPC: 0.268 (Simulation time: 00 hr 11 min 28 sec)
Heartbeat CPU 0 instructions: 50000000 cycles: 77357616 heartbeat IPC: 0.6848 cumulative IPC: 0.3542 (Simulation time: 00 hr 13 min 50 sec)
Simulation finished CPU 0 instructions: 25000000 cycles: 70581821 cumulative IPC: 0.3542 (Simulation time: 00 hr 13 min 50 sec)
Simulation complete CPU 0 instructions: 25000000 cycles: 70581821 cumulative IPC: 0.3542 (Simulation time: 00 hr 13 min 50 sec)

ChampSim completed all CPUs

=== Simulation ===
CPU 0 runs ./traces/gcc_13B.trace.xz
Region of Interest Statistics

CPU 0 cumulative IPC: 0.3542 instructions: 25000000 cycles: 70581821
CPU 0 Branch Prediction Accuracy: 87.06% MPKI: 28.41 Average ROB Occupancy at Mispredict: 26.43
Branch type MPKI
BRANCH_DIRECT_JUMP: 0.00096
BRANCH_INDIRECT: 0
BRANCH_CONDITIONAL: 27.4
BRANCH_DIRECT_CALL: 0.00084
BRANCH_INDIRECT_CALL: 0.002
BRANCH_RETURN: 1

LLC TOTAL        ACCESS:     729657 HIT:     223287 MISS:     506370
LLC LOAD         ACCESS:     421025 HIT:      16376 MISS:     404649
LLC RFO          ACCESS:      99143 HIT:       3231 MISS:      95912
LLC PREFETCH     ACCESS:          0 HIT:          0 MISS:          0
LLC WRITE        ACCESS:     202656 HIT:     200911 MISS:       1745
LLC TRANSLATION  ACCESS:       6833 HIT:       2769 MISS:       4064
LLC PREFETCH REQUESTED:          0 ISSUED:          0 USEFUL:          0 USELESS:          0
LLC AVERAGE MISS LATENCY: 683.6 cycles
cpu0_DTLB TOTAL        ACCESS:    6855123 HIT:    6780752 MISS:      74371
cpu0_DTLB LOAD         ACCESS:    6855123 HIT:    6780752 MISS:      74371
cpu0_DTLB RFO          ACCESS:          0 HIT:          0 MISS:          0
cpu0_DTLB PREFETCH     ACCESS:          0 HIT:          0 MISS:          0
cpu0_DTLB WRITE        ACCESS:          0 HIT:          0 MISS:          0
cpu0_DTLB TRANSLATION  ACCESS:          0 HIT:          0 MISS:          0
cpu0_DTLB PREFETCH REQUESTED:          0 ISSUED:          0 USEFUL:          0 USELESS:          0
cpu0_DTLB AVERAGE MISS LATENCY: 87.24 cycles
cpu0_ITLB TOTAL        ACCESS:        427 HIT:        412 MISS:         15
cpu0_ITLB LOAD         ACCESS:        427 HIT:        412 MISS:         15
cpu0_ITLB RFO          ACCESS:          0 HIT:          0 MISS:          0
cpu0_ITLB PREFETCH     ACCESS:          0 HIT:          0 MISS:          0
cpu0_ITLB WRITE        ACCESS:          0 HIT:          0 MISS:          0
cpu0_ITLB TRANSLATION  ACCESS:          0 HIT:          0 MISS:          0
cpu0_ITLB PREFETCH REQUESTED:          0 ISSUED:          0 USEFUL:          0 USELESS:          0
cpu0_ITLB AVERAGE MISS LATENCY: 514.6 cycles
cpu0_L1D TOTAL        ACCESS:    8991743 HIT:    6895986 MISS:    2095757
cpu0_L1D LOAD         ACCESS:    5362493 HIT:    3822402 MISS:    1540091
cpu0_L1D RFO          ACCESS:          0 HIT:          0 MISS:          0
cpu0_L1D PREFETCH     ACCESS:          0 HIT:          0 MISS:          0
cpu0_L1D WRITE        ACCESS:    3607345 HIT:    3065110 MISS:     542235
cpu0_L1D TRANSLATION  ACCESS:      21905 HIT:       8474 MISS:      13431
cpu0_L1D PREFETCH REQUESTED:          0 ISSUED:          0 USEFUL:          0 USELESS:          0
cpu0_L1D AVERAGE MISS LATENCY: 153.3 cycles
cpu0_L1I TOTAL        ACCESS:        494 HIT:        424 MISS:         70
cpu0_L1I LOAD         ACCESS:        494 HIT:        424 MISS:         70
cpu0_L1I RFO          ACCESS:          0 HIT:          0 MISS:          0
cpu0_L1I PREFETCH     ACCESS:          0 HIT:          0 MISS:          0
cpu0_L1I WRITE        ACCESS:          0 HIT:          0 MISS:          0
cpu0_L1I TRANSLATION  ACCESS:          0 HIT:          0 MISS:          0
cpu0_L1I PREFETCH REQUESTED:          0 ISSUED:          0 USEFUL:          0 USELESS:          0
cpu0_L1I AVERAGE MISS LATENCY: 305.7 cycles
cpu0_L2C TOTAL        ACCESS:     752833 HIT:     225813 MISS:     527020
cpu0_L2C LOAD         ACCESS:     435851 HIT:      14826 MISS:     421025
cpu0_L2C RFO          ACCESS:      99975 HIT:        832 MISS:      99143
cpu0_L2C PREFETCH     ACCESS:          0 HIT:          0 MISS:          0
cpu0_L2C WRITE        ACCESS:     203602 HIT:     203583 MISS:         19
cpu0_L2C TRANSLATION  ACCESS:      13405 HIT:       6572 MISS:       6833
cpu0_L2C PREFETCH REQUESTED:          0 ISSUED:          0 USEFUL:          0 USELESS:          0
cpu0_L2C AVERAGE MISS LATENCY: 677.8 cycles
cpu0_STLB TOTAL        ACCESS:      30393 HIT:       8594 MISS:      21799
cpu0_STLB LOAD         ACCESS:      30393 HIT:       8594 MISS:      21799
cpu0_STLB RFO          ACCESS:          0 HIT:          0 MISS:          0
cpu0_STLB PREFETCH     ACCESS:          0 HIT:          0 MISS:          0
cpu0_STLB WRITE        ACCESS:          0 HIT:          0 MISS:          0
cpu0_STLB TRANSLATION  ACCESS:          0 HIT:          0 MISS:          0
cpu0_STLB PREFETCH REQUESTED:          0 ISSUED:          0 USEFUL:          0 USELESS:          0
cpu0_STLB AVERAGE MISS LATENCY: 385.4 cycles

DRAM Statistics

Channel 0 RQ ROW_BUFFER_HIT:     171560
  ROW_BUFFER_MISS:     333058
 AVG DBUS CONGESTED CYCLE: 3.923
WQ ROW_BUFFER_HIT: Channel 0 
  ROW_BUFFER_MISS:      17590
  FULL:     183037
