WARNING: physical memory size is smaller than virtual memory size.

*** ChampSim Multicore Out-of-Order Simulator ***
Warmup Instructions: 25000000
Simulation Instructions: 25000000
Number of CPUs: 1
Page size: 4096

Off-chip DRAM Size: 4 GiB Channels: 1 Width: 64-bit Data Race: 800 MT/s
Heartbeat CPU 0 instructions: 10000000 cycles: 2508554 heartbeat IPC: 3.986 cumulative IPC: 3.986 (Simulation time: 00 hr 00 min 44 sec)
Heartbeat CPU 0 instructions: 20000000 cycles: 5008554 heartbeat IPC: 4 cumulative IPC: 3.993 (Simulation time: 00 hr 01 min 42 sec)
Warmup finished CPU 0 instructions: 25000000 cycles: 6258555 cumulative IPC: 3.995 (Simulation time: 00 hr 02 min 11 sec)
Warmup complete CPU 0 instructions: 25000000 cycles: 6258555 cumulative IPC: 3.995 (Simulation time: 00 hr 02 min 11 sec)
Heartbeat CPU 0 instructions: 30000001 cycles: 11250477 heartbeat IPC: 1.602 cumulative IPC: 1.002 (Simulation time: 00 hr 03 min 27 sec)
Heartbeat CPU 0 instructions: 40000000 cycles: 19237837 heartbeat IPC: 1.252 cumulative IPC: 1.156 (Simulation time: 00 hr 05 min 37 sec)
Heartbeat CPU 0 instructions: 50000000 cycles: 40508219 heartbeat IPC: 0.4701 cumulative IPC: 0.7299 (Simulation time: 00 hr 10 min 28 sec)
Simulation finished CPU 0 instructions: 25000000 cycles: 34249665 cumulative IPC: 0.7299 (Simulation time: 00 hr 10 min 28 sec)
Simulation complete CPU 0 instructions: 25000000 cycles: 34249665 cumulative IPC: 0.7299 (Simulation time: 00 hr 10 min 28 sec)

ChampSim completed all CPUs

=== Simulation ===
CPU 0 runs ./traces/GemsFDTD_716B.trace.xz
Region of Interest Statistics

CPU 0 cumulative IPC: 0.7299 instructions: 25000000 cycles: 34249665
CPU 0 Branch Prediction Accuracy: 99.45% MPKI: 0.03192 Average ROB Occupancy at Mispredict: 350.3
Branch type MPKI
BRANCH_DIRECT_JUMP: 0
BRANCH_INDIRECT: 0
BRANCH_CONDITIONAL: 0.0319
BRANCH_DIRECT_CALL: 0
BRANCH_INDIRECT_CALL: 0
BRANCH_RETURN: 0

LLC TOTAL        ACCESS:     622909 HIT:     225256 MISS:     397653
LLC LOAD         ACCESS:     527327 HIT:     175099 MISS:     352228
LLC RFO          ACCESS:          1 HIT:          1 MISS:          0
LLC PREFETCH     ACCESS:          0 HIT:          0 MISS:          0
LLC WRITE        ACCESS:      44020 HIT:      43836 MISS:        184
LLC TRANSLATION  ACCESS:      51561 HIT:       6320 MISS:      45241
LLC PREFETCH REQUESTED:          0 ISSUED:          0 USEFUL:          0 USELESS:          0
LLC AVERAGE MISS LATENCY: 505.3 cycles
cpu0_DTLB TOTAL        ACCESS:    6628414 HIT:    5909629 MISS:     718785
cpu0_DTLB LOAD         ACCESS:    6628414 HIT:    5909629 MISS:     718785
cpu0_DTLB RFO          ACCESS:          0 HIT:          0 MISS:          0
cpu0_DTLB PREFETCH     ACCESS:          0 HIT:          0 MISS:          0
cpu0_DTLB WRITE        ACCESS:          0 HIT:          0 MISS:          0
cpu0_DTLB TRANSLATION  ACCESS:          0 HIT:          0 MISS:          0
cpu0_DTLB PREFETCH REQUESTED:          0 ISSUED:          0 USEFUL:          0 USELESS:          0
cpu0_DTLB AVERAGE MISS LATENCY: 45.54 cycles
cpu0_ITLB TOTAL        ACCESS:        139 HIT:        131 MISS:          8
cpu0_ITLB LOAD         ACCESS:        139 HIT:        131 MISS:          8
cpu0_ITLB RFO          ACCESS:          0 HIT:          0 MISS:          0
cpu0_ITLB PREFETCH     ACCESS:          0 HIT:          0 MISS:          0
cpu0_ITLB WRITE        ACCESS:          0 HIT:          0 MISS:          0
cpu0_ITLB TRANSLATION  ACCESS:          0 HIT:          0 MISS:          0
cpu0_ITLB PREFETCH REQUESTED:          0 ISSUED:          0 USEFUL:          0 USELESS:          0
cpu0_ITLB AVERAGE MISS LATENCY: 167.1 cycles
cpu0_L1D TOTAL        ACCESS:    8485070 HIT:    6357784 MISS:    2127286
cpu0_L1D LOAD         ACCESS:    5503866 HIT:    3486134 MISS:    2017732
cpu0_L1D RFO          ACCESS:          0 HIT:          0 MISS:          0
cpu0_L1D PREFETCH     ACCESS:          0 HIT:          0 MISS:          0
cpu0_L1D WRITE        ACCESS:    2887447 HIT:    2865098 MISS:      22349
cpu0_L1D TRANSLATION  ACCESS:      93757 HIT:       6552 MISS:      87205
cpu0_L1D PREFETCH REQUESTED:          0 ISSUED:          0 USEFUL:          0 USELESS:          0
cpu0_L1D AVERAGE MISS LATENCY: 110.3 cycles
cpu0_L1I TOTAL        ACCESS:        176 HIT:         83 MISS:         93
cpu0_L1I LOAD         ACCESS:        176 HIT:         83 MISS:         93
cpu0_L1I RFO          ACCESS:          0 HIT:          0 MISS:          0
cpu0_L1I PREFETCH     ACCESS:          0 HIT:          0 MISS:          0
cpu0_L1I WRITE        ACCESS:          0 HIT:          0 MISS:          0
cpu0_L1I TRANSLATION  ACCESS:          0 HIT:          0 MISS:          0
cpu0_L1I PREFETCH REQUESTED:          0 ISSUED:          0 USEFUL:          0 USELESS:          0
cpu0_L1I AVERAGE MISS LATENCY: 254.2 cycles
cpu0_L2C TOTAL        ACCESS:    2411568 HIT:    1832670 MISS:     578898
cpu0_L2C LOAD         ACCESS:    2005033 HIT:    1477700 MISS:     527333
cpu0_L2C RFO          ACCESS:      18186 HIT:      18185 MISS:          1
cpu0_L2C PREFETCH     ACCESS:          0 HIT:          0 MISS:          0
cpu0_L2C WRITE        ACCESS:     301593 HIT:     301590 MISS:          3
cpu0_L2C TRANSLATION  ACCESS:      86756 HIT:      35195 MISS:      51561
cpu0_L2C PREFETCH REQUESTED:          0 ISSUED:          0 USEFUL:          0 USELESS:          0
cpu0_L2C AVERAGE MISS LATENCY: 367.8 cycles
cpu0_STLB TOTAL        ACCESS:     703074 HIT:     634640 MISS:      68434
cpu0_STLB LOAD         ACCESS:     703074 HIT:     634640 MISS:      68434
cpu0_STLB RFO          ACCESS:          0 HIT:          0 MISS:          0
cpu0_STLB PREFETCH     ACCESS:          0 HIT:          0 MISS:          0
cpu0_STLB WRITE        ACCESS:          0 HIT:          0 MISS:          0
cpu0_STLB TRANSLATION  ACCESS:          0 HIT:          0 MISS:          0
cpu0_STLB PREFETCH REQUESTED:          0 ISSUED:          0 USEFUL:          0 USELESS:          0
cpu0_STLB AVERAGE MISS LATENCY: 424 cycles

DRAM Statistics

Channel 0 RQ ROW_BUFFER_HIT:     142297
  ROW_BUFFER_MISS:     255166
 AVG DBUS CONGESTED CYCLE: 3.797
WQ ROW_BUFFER_HIT: Channel 0 
  ROW_BUFFER_MISS:        391
  FULL:        292
