WARNING: physical memory size is smaller than virtual memory size.

*** ChampSim Multicore Out-of-Order Simulator ***
Warmup Instructions: 25000000
Simulation Instructions: 25000000
Number of CPUs: 1
Page size: 4096

Off-chip DRAM Size: 4 GiB Channels: 1 Width: 64-bit Data Race: 800 MT/s
Heartbeat CPU 0 instructions: 10000003 cycles: 2500121 heartbeat IPC: 4 cumulative IPC: 4 (Simulation time: 00 hr 00 min 55 sec)
Heartbeat CPU 0 instructions: 20000003 cycles: 5000121 heartbeat IPC: 4 cumulative IPC: 4 (Simulation time: 00 hr 01 min 54 sec)
Warmup finished CPU 0 instructions: 25000003 cycles: 6250122 cumulative IPC: 4 (Simulation time: 00 hr 02 min 25 sec)
Warmup complete CPU 0 instructions: 25000003 cycles: 6250122 cumulative IPC: 4 (Simulation time: 00 hr 02 min 25 sec)
Heartbeat CPU 0 instructions: 30000001 cycles: 32858150 heartbeat IPC: 0.359 cumulative IPC: 0.1879 (Simulation time: 00 hr 07 min 30 sec)
Heartbeat CPU 0 instructions: 40000000 cycles: 86044215 heartbeat IPC: 0.188 cumulative IPC: 0.188 (Simulation time: 00 hr 17 min 47 sec)
Heartbeat CPU 0 instructions: 50000002 cycles: 139144538 heartbeat IPC: 0.1883 cumulative IPC: 0.1881 (Simulation time: 00 hr 28 min 02 sec)
Simulation finished CPU 0 instructions: 25000003 cycles: 132894418 cumulative IPC: 0.1881 (Simulation time: 00 hr 28 min 02 sec)
Simulation complete CPU 0 instructions: 25000003 cycles: 132894418 cumulative IPC: 0.1881 (Simulation time: 00 hr 28 min 02 sec)

ChampSim completed all CPUs

=== Simulation ===
CPU 0 runs ./traces/GemsFDTD_712B.trace.xz
Region of Interest Statistics

CPU 0 cumulative IPC: 0.1881 instructions: 25000003 cycles: 132894418
CPU 0 Branch Prediction Accuracy: 97.29% MPKI: 0.5323 Average ROB Occupancy at Mispredict: 313.1
Branch type MPKI
BRANCH_DIRECT_JUMP: 0
BRANCH_INDIRECT: 0
BRANCH_CONDITIONAL: 0.532
BRANCH_DIRECT_CALL: 0
BRANCH_INDIRECT_CALL: 0
BRANCH_RETURN: 0

LLC TOTAL        ACCESS:    1317841 HIT:     364060 MISS:     953781
LLC LOAD         ACCESS:     957879 HIT:       4445 MISS:     953434
LLC RFO          ACCESS:          0 HIT:          0 MISS:          0
LLC PREFETCH     ACCESS:          0 HIT:          0 MISS:          0
LLC WRITE        ACCESS:     358833 HIT:     358776 MISS:         57
LLC TRANSLATION  ACCESS:       1129 HIT:        839 MISS:        290
LLC PREFETCH REQUESTED:          0 ISSUED:          0 USEFUL:          0 USELESS:          0
LLC AVERAGE MISS LATENCY: 1662 cycles
cpu0_DTLB TOTAL        ACCESS:    8112995 HIT:    8068544 MISS:      44451
cpu0_DTLB LOAD         ACCESS:    8112995 HIT:    8068544 MISS:      44451
cpu0_DTLB RFO          ACCESS:          0 HIT:          0 MISS:          0
cpu0_DTLB PREFETCH     ACCESS:          0 HIT:          0 MISS:          0
cpu0_DTLB WRITE        ACCESS:          0 HIT:          0 MISS:          0
cpu0_DTLB TRANSLATION  ACCESS:          0 HIT:          0 MISS:          0
cpu0_DTLB PREFETCH REQUESTED:          0 ISSUED:          0 USEFUL:          0 USELESS:          0
cpu0_DTLB AVERAGE MISS LATENCY: 43.45 cycles
cpu0_ITLB TOTAL        ACCESS:          0 HIT:          0 MISS:          0
cpu0_ITLB LOAD         ACCESS:          0 HIT:          0 MISS:          0
cpu0_ITLB RFO          ACCESS:          0 HIT:          0 MISS:          0
cpu0_ITLB PREFETCH     ACCESS:          0 HIT:          0 MISS:          0
cpu0_ITLB WRITE        ACCESS:          0 HIT:          0 MISS:          0
cpu0_ITLB TRANSLATION  ACCESS:          0 HIT:          0 MISS:          0
cpu0_ITLB PREFETCH REQUESTED:          0 ISSUED:          0 USEFUL:          0 USELESS:          0
cpu0_ITLB AVERAGE MISS LATENCY: -nan cycles
cpu0_L1D TOTAL        ACCESS:   10353534 HIT:    4840714 MISS:    5512820
cpu0_L1D LOAD         ACCESS:    7948706 HIT:    2447612 MISS:    5501094
cpu0_L1D RFO          ACCESS:          0 HIT:          0 MISS:          0
cpu0_L1D PREFETCH     ACCESS:          0 HIT:          0 MISS:          0
cpu0_L1D WRITE        ACCESS:    2392486 HIT:    2392473 MISS:         13
cpu0_L1D TRANSLATION  ACCESS:      12342 HIT:        629 MISS:      11713
cpu0_L1D PREFETCH REQUESTED:          0 ISSUED:          0 USEFUL:          0 USELESS:          0
cpu0_L1D AVERAGE MISS LATENCY: 189.5 cycles
cpu0_L1I TOTAL        ACCESS:          0 HIT:          0 MISS:          0
cpu0_L1I LOAD         ACCESS:          0 HIT:          0 MISS:          0
cpu0_L1I RFO          ACCESS:          0 HIT:          0 MISS:          0
cpu0_L1I PREFETCH     ACCESS:          0 HIT:          0 MISS:          0
cpu0_L1I WRITE        ACCESS:          0 HIT:          0 MISS:          0
cpu0_L1I TRANSLATION  ACCESS:          0 HIT:          0 MISS:          0
cpu0_L1I PREFETCH REQUESTED:          0 ISSUED:          0 USEFUL:          0 USELESS:          0
cpu0_L1I AVERAGE MISS LATENCY: -nan cycles
cpu0_L2C TOTAL        ACCESS:    1333956 HIT:     374846 MISS:     959110
cpu0_L2C LOAD         ACCESS:     961639 HIT:       3759 MISS:     957880
cpu0_L2C RFO          ACCESS:          3 HIT:          3 MISS:          0
cpu0_L2C PREFETCH     ACCESS:          0 HIT:          0 MISS:          0
cpu0_L2C WRITE        ACCESS:     360601 HIT:     360500 MISS:        101
cpu0_L2C TRANSLATION  ACCESS:      11713 HIT:      10584 MISS:       1129
cpu0_L2C PREFETCH REQUESTED:          0 ISSUED:          0 USEFUL:          0 USELESS:          0
cpu0_L2C AVERAGE MISS LATENCY: 1674 cycles
cpu0_STLB TOTAL        ACCESS:      16424 HIT:       4111 MISS:      12313
cpu0_STLB LOAD         ACCESS:      16424 HIT:       4111 MISS:      12313
cpu0_STLB RFO          ACCESS:          0 HIT:          0 MISS:          0
cpu0_STLB PREFETCH     ACCESS:          0 HIT:          0 MISS:          0
cpu0_STLB WRITE        ACCESS:          0 HIT:          0 MISS:          0
cpu0_STLB TRANSLATION  ACCESS:          0 HIT:          0 MISS:          0
cpu0_STLB PREFETCH REQUESTED:          0 ISSUED:          0 USEFUL:          0 USELESS:          0
cpu0_STLB AVERAGE MISS LATENCY: 264.6 cycles

DRAM Statistics

Channel 0 RQ ROW_BUFFER_HIT:     585716
  ROW_BUFFER_MISS:     367996
 AVG DBUS CONGESTED CYCLE: 3.943
WQ ROW_BUFFER_HIT: Channel 0 
  ROW_BUFFER_MISS:      51596
  FULL:     307085
