WARNING: physical memory size is smaller than virtual memory size.

*** ChampSim Multicore Out-of-Order Simulator ***
Warmup Instructions: 25000000
Simulation Instructions: 25000000
Number of CPUs: 1
Page size: 4096

Off-chip DRAM Size: 4 GiB Channels: 1 Width: 64-bit Data Race: 800 MT/s
Heartbeat CPU 0 instructions: 10000002 cycles: 2500115 heartbeat IPC: 4 cumulative IPC: 4 (Simulation time: 00 hr 00 min 55 sec)
Heartbeat CPU 0 instructions: 20000002 cycles: 5000115 heartbeat IPC: 4 cumulative IPC: 4 (Simulation time: 00 hr 01 min 53 sec)
Warmup finished CPU 0 instructions: 25000001 cycles: 6256861 cumulative IPC: 3.996 (Simulation time: 00 hr 02 min 20 sec)
Warmup complete CPU 0 instructions: 25000001 cycles: 6256861 cumulative IPC: 3.996 (Simulation time: 00 hr 02 min 20 sec)
Heartbeat CPU 0 instructions: 30000001 cycles: 19925558 heartbeat IPC: 0.67 cumulative IPC: 0.3658 (Simulation time: 00 hr 04 min 54 sec)
Heartbeat CPU 0 instructions: 40000002 cycles: 25326705 heartbeat IPC: 1.851 cumulative IPC: 0.7866 (Simulation time: 00 hr 06 min 22 sec)
Heartbeat CPU 0 instructions: 50000002 cycles: 51507633 heartbeat IPC: 0.382 cumulative IPC: 0.5525 (Simulation time: 00 hr 11 min 46 sec)
Simulation finished CPU 0 instructions: 25000001 cycles: 45250773 cumulative IPC: 0.5525 (Simulation time: 00 hr 11 min 46 sec)
Simulation complete CPU 0 instructions: 25000001 cycles: 45250773 cumulative IPC: 0.5525 (Simulation time: 00 hr 11 min 46 sec)

ChampSim completed all CPUs

=== Simulation ===
CPU 0 runs ./traces/GemsFDTD_109B.trace.xz
Region of Interest Statistics

CPU 0 cumulative IPC: 0.5525 instructions: 25000001 cycles: 45250773
CPU 0 Branch Prediction Accuracy: 92.35% MPKI: 9.67 Average ROB Occupancy at Mispredict: 134.2
Branch type MPKI
BRANCH_DIRECT_JUMP: 0.0625
BRANCH_INDIRECT: 0
BRANCH_CONDITIONAL: 5.04
BRANCH_DIRECT_CALL: 0.00192
BRANCH_INDIRECT_CALL: 0
BRANCH_RETURN: 4.56

LLC TOTAL        ACCESS:     806648 HIT:     453710 MISS:     352938
LLC LOAD         ACCESS:     426733 HIT:      92146 MISS:     334587
LLC RFO          ACCESS:      96965 HIT:      96152 MISS:        813
LLC PREFETCH     ACCESS:          0 HIT:          0 MISS:          0
LLC WRITE        ACCESS:     271830 HIT:     265103 MISS:       6727
LLC TRANSLATION  ACCESS:      11120 HIT:        309 MISS:      10811
LLC PREFETCH REQUESTED:          0 ISSUED:          0 USEFUL:          0 USELESS:          0
LLC AVERAGE MISS LATENCY: 1436 cycles
cpu0_DTLB TOTAL        ACCESS:    4953896 HIT:    4708237 MISS:     245659
cpu0_DTLB LOAD         ACCESS:    4953896 HIT:    4708237 MISS:     245659
cpu0_DTLB RFO          ACCESS:          0 HIT:          0 MISS:          0
cpu0_DTLB PREFETCH     ACCESS:          0 HIT:          0 MISS:          0
cpu0_DTLB WRITE        ACCESS:          0 HIT:          0 MISS:          0
cpu0_DTLB TRANSLATION  ACCESS:          0 HIT:          0 MISS:          0
cpu0_DTLB PREFETCH REQUESTED:          0 ISSUED:          0 USEFUL:          0 USELESS:          0
cpu0_DTLB AVERAGE MISS LATENCY: 211.7 cycles
cpu0_ITLB TOTAL        ACCESS:        872 HIT:        855 MISS:         17
cpu0_ITLB LOAD         ACCESS:        872 HIT:        855 MISS:         17
cpu0_ITLB RFO          ACCESS:          0 HIT:          0 MISS:          0
cpu0_ITLB PREFETCH     ACCESS:          0 HIT:          0 MISS:          0
cpu0_ITLB WRITE        ACCESS:          0 HIT:          0 MISS:          0
cpu0_ITLB TRANSLATION  ACCESS:          0 HIT:          0 MISS:          0
cpu0_ITLB PREFETCH REQUESTED:          0 ISSUED:          0 USEFUL:          0 USELESS:          0
cpu0_ITLB AVERAGE MISS LATENCY: 343.3 cycles
cpu0_L1D TOTAL        ACCESS:    6277799 HIT:    4204265 MISS:    2073534
cpu0_L1D LOAD         ACCESS:    3676386 HIT:    2239815 MISS:    1436571
cpu0_L1D RFO          ACCESS:          0 HIT:          0 MISS:          0
cpu0_L1D PREFETCH     ACCESS:          0 HIT:          0 MISS:          0
cpu0_L1D WRITE        ACCESS:    2502370 HIT:    1888016 MISS:     614354
cpu0_L1D TRANSLATION  ACCESS:      99043 HIT:      76434 MISS:      22609
cpu0_L1D PREFETCH REQUESTED:          0 ISSUED:          0 USEFUL:          0 USELESS:          0
cpu0_L1D AVERAGE MISS LATENCY: 240.1 cycles
cpu0_L1I TOTAL        ACCESS:       1046 HIT:        604 MISS:        442
cpu0_L1I LOAD         ACCESS:       1046 HIT:        604 MISS:        442
cpu0_L1I RFO          ACCESS:          0 HIT:          0 MISS:          0
cpu0_L1I PREFETCH     ACCESS:          0 HIT:          0 MISS:          0
cpu0_L1I WRITE        ACCESS:          0 HIT:          0 MISS:          0
cpu0_L1I TRANSLATION  ACCESS:          0 HIT:          0 MISS:          0
cpu0_L1I PREFETCH REQUESTED:          0 ISSUED:          0 USEFUL:          0 USELESS:          0
cpu0_L1I AVERAGE MISS LATENCY: 392.4 cycles
cpu0_L2C TOTAL        ACCESS:     863724 HIT:     328862 MISS:     534862
cpu0_L2C LOAD         ACCESS:     472946 HIT:      46213 MISS:     426733
cpu0_L2C RFO          ACCESS:      97029 HIT:         64 MISS:      96965
cpu0_L2C PREFETCH     ACCESS:          0 HIT:          0 MISS:          0
cpu0_L2C WRITE        ACCESS:     271386 HIT:     271342 MISS:         44
cpu0_L2C TRANSLATION  ACCESS:      22363 HIT:      11243 MISS:      11120
cpu0_L2C PREFETCH REQUESTED:          0 ISSUED:          0 USEFUL:          0 USELESS:          0
cpu0_L2C AVERAGE MISS LATENCY: 968.3 cycles
cpu0_STLB TOTAL        ACCESS:     121235 HIT:      23078 MISS:      98157
cpu0_STLB LOAD         ACCESS:     121235 HIT:      23078 MISS:      98157
cpu0_STLB RFO          ACCESS:          0 HIT:          0 MISS:          0
cpu0_STLB PREFETCH     ACCESS:          0 HIT:          0 MISS:          0
cpu0_STLB WRITE        ACCESS:          0 HIT:          0 MISS:          0
cpu0_STLB TRANSLATION  ACCESS:          0 HIT:          0 MISS:          0
cpu0_STLB PREFETCH REQUESTED:          0 ISSUED:          0 USEFUL:          0 USELESS:          0
cpu0_STLB AVERAGE MISS LATENCY: 689.6 cycles

DRAM Statistics

Channel 0 RQ ROW_BUFFER_HIT:     118068
  ROW_BUFFER_MISS:     228130
 AVG DBUS CONGESTED CYCLE: 3.919
WQ ROW_BUFFER_HIT: Channel 0 
  ROW_BUFFER_MISS:       3806
  FULL:     185323
