WARNING: physical memory size is smaller than virtual memory size.

*** ChampSim Multicore Out-of-Order Simulator ***
Warmup Instructions: 25000000
Simulation Instructions: 25000000
Number of CPUs: 1
Page size: 4096

Off-chip DRAM Size: 4 GiB Channels: 1 Width: 64-bit Data Race: 800 MT/s
Heartbeat CPU 0 instructions: 10000000 cycles: 2500619 heartbeat IPC: 3.999 cumulative IPC: 3.999 (Simulation time: 00 hr 01 min 06 sec)
Heartbeat CPU 0 instructions: 20000000 cycles: 5000619 heartbeat IPC: 4 cumulative IPC: 4 (Simulation time: 00 hr 02 min 16 sec)
Warmup finished CPU 0 instructions: 25000003 cycles: 6251030 cumulative IPC: 3.999 (Simulation time: 00 hr 02 min 45 sec)
Warmup complete CPU 0 instructions: 25000003 cycles: 6251030 cumulative IPC: 3.999 (Simulation time: 00 hr 02 min 45 sec)
Heartbeat CPU 0 instructions: 30000003 cycles: 8968504 heartbeat IPC: 2.52 cumulative IPC: 1.84 (Simulation time: 00 hr 03 min 37 sec)
Heartbeat CPU 0 instructions: 40000001 cycles: 13677138 heartbeat IPC: 2.124 cumulative IPC: 2.02 (Simulation time: 00 hr 05 min 18 sec)
Heartbeat CPU 0 instructions: 50000003 cycles: 19470509 heartbeat IPC: 1.726 cumulative IPC: 1.891 (Simulation time: 00 hr 07 min 00 sec)
Simulation finished CPU 0 instructions: 25000000 cycles: 13219480 cumulative IPC: 1.891 (Simulation time: 00 hr 07 min 00 sec)
Simulation complete CPU 0 instructions: 25000000 cycles: 13219480 cumulative IPC: 1.891 (Simulation time: 00 hr 07 min 00 sec)

ChampSim completed all CPUs

=== Simulation ===
CPU 0 runs ./traces/hmmer_7B.trace.xz
Region of Interest Statistics

CPU 0 cumulative IPC: 1.891 instructions: 25000000 cycles: 13219480
CPU 0 Branch Prediction Accuracy: 99.03% MPKI: 0.3745 Average ROB Occupancy at Mispredict: 209.4
Branch type MPKI
BRANCH_DIRECT_JUMP: 0.00052
BRANCH_INDIRECT: 0.00224
BRANCH_CONDITIONAL: 0.37
BRANCH_DIRECT_CALL: 0.00036
BRANCH_INDIRECT_CALL: 8e-05
BRANCH_RETURN: 0.00108

LLC TOTAL        ACCESS:     152092 HIT:     104195 MISS:      47897
LLC LOAD         ACCESS:       7243 HIT:       6350 MISS:        893
LLC RFO          ACCESS:      73452 HIT:      26509 MISS:      46943
LLC PREFETCH     ACCESS:          0 HIT:          0 MISS:          0
LLC WRITE        ACCESS:      71384 HIT:      71336 MISS:         48
LLC TRANSLATION  ACCESS:         13 HIT:          0 MISS:         13
LLC PREFETCH REQUESTED:          0 ISSUED:          0 USEFUL:          0 USELESS:          0
LLC AVERAGE MISS LATENCY: 2900 cycles
cpu0_DTLB TOTAL        ACCESS:    5668578 HIT:    5662234 MISS:       6344
cpu0_DTLB LOAD         ACCESS:    5668578 HIT:    5662234 MISS:       6344
cpu0_DTLB RFO          ACCESS:          0 HIT:          0 MISS:          0
cpu0_DTLB PREFETCH     ACCESS:          0 HIT:          0 MISS:          0
cpu0_DTLB WRITE        ACCESS:          0 HIT:          0 MISS:          0
cpu0_DTLB TRANSLATION  ACCESS:          0 HIT:          0 MISS:          0
cpu0_DTLB PREFETCH REQUESTED:          0 ISSUED:          0 USEFUL:          0 USELESS:          0
cpu0_DTLB AVERAGE MISS LATENCY: 4.56 cycles
cpu0_ITLB TOTAL        ACCESS:       3191 HIT:       3107 MISS:         84
cpu0_ITLB LOAD         ACCESS:       3191 HIT:       3107 MISS:         84
cpu0_ITLB RFO          ACCESS:          0 HIT:          0 MISS:          0
cpu0_ITLB PREFETCH     ACCESS:          0 HIT:          0 MISS:          0
cpu0_ITLB WRITE        ACCESS:          0 HIT:          0 MISS:          0
cpu0_ITLB TRANSLATION  ACCESS:          0 HIT:          0 MISS:          0
cpu0_ITLB PREFETCH REQUESTED:          0 ISSUED:          0 USEFUL:          0 USELESS:          0
cpu0_ITLB AVERAGE MISS LATENCY: 22.48 cycles
cpu0_L1D TOTAL        ACCESS:    7955017 HIT:    5667223 MISS:    2287794
cpu0_L1D LOAD         ACCESS:    4391324 HIT:    4307256 MISS:      84068
cpu0_L1D RFO          ACCESS:          0 HIT:          0 MISS:          0
cpu0_L1D PREFETCH     ACCESS:          0 HIT:          0 MISS:          0
cpu0_L1D WRITE        ACCESS:    3563674 HIT:    1359966 MISS:    2203708
cpu0_L1D TRANSLATION  ACCESS:         19 HIT:          1 MISS:         18
cpu0_L1D PREFETCH REQUESTED:          0 ISSUED:          0 USEFUL:          0 USELESS:          0
cpu0_L1D AVERAGE MISS LATENCY: 50.98 cycles
cpu0_L1I TOTAL        ACCESS:       3568 HIT:       3421 MISS:        147
cpu0_L1I LOAD         ACCESS:       3568 HIT:       3421 MISS:        147
cpu0_L1I RFO          ACCESS:          0 HIT:          0 MISS:          0
cpu0_L1I PREFETCH     ACCESS:          0 HIT:          0 MISS:          0
cpu0_L1I WRITE        ACCESS:          0 HIT:          0 MISS:          0
cpu0_L1I TRANSLATION  ACCESS:          0 HIT:          0 MISS:          0
cpu0_L1I PREFETCH REQUESTED:          0 ISSUED:          0 USEFUL:          0 USELESS:          0
cpu0_L1I AVERAGE MISS LATENCY: 140.7 cycles
cpu0_L2C TOTAL        ACCESS:     213318 HIT:     132591 MISS:      80727
cpu0_L2C LOAD         ACCESS:      60675 HIT:      53432 MISS:       7243
cpu0_L2C RFO          ACCESS:      77385 HIT:       3933 MISS:      73452
cpu0_L2C PREFETCH     ACCESS:          0 HIT:          0 MISS:          0
cpu0_L2C WRITE        ACCESS:      75240 HIT:      75221 MISS:         19
cpu0_L2C TRANSLATION  ACCESS:         18 HIT:          5 MISS:         13
cpu0_L2C PREFETCH REQUESTED:          0 ISSUED:          0 USEFUL:          0 USELESS:          0
cpu0_L2C AVERAGE MISS LATENCY: 1741 cycles
cpu0_STLB TOTAL        ACCESS:       3640 HIT:       3621 MISS:         19
cpu0_STLB LOAD         ACCESS:       3640 HIT:       3621 MISS:         19
cpu0_STLB RFO          ACCESS:          0 HIT:          0 MISS:          0
cpu0_STLB PREFETCH     ACCESS:          0 HIT:          0 MISS:          0
cpu0_STLB WRITE        ACCESS:          0 HIT:          0 MISS:          0
cpu0_STLB TRANSLATION  ACCESS:          0 HIT:          0 MISS:          0
cpu0_STLB PREFETCH REQUESTED:          0 ISSUED:          0 USEFUL:          0 USELESS:          0
cpu0_STLB AVERAGE MISS LATENCY: 832.6 cycles

DRAM Statistics

Channel 0 RQ ROW_BUFFER_HIT:      21663
  ROW_BUFFER_MISS:      26174
 AVG DBUS CONGESTED CYCLE: 3.959
WQ ROW_BUFFER_HIT: Channel 0 
  ROW_BUFFER_MISS:       8042
  FULL:      38011
