WARNING: physical memory size is smaller than virtual memory size.

*** ChampSim Multicore Out-of-Order Simulator ***
Warmup Instructions: 25000000
Simulation Instructions: 25000000
Number of CPUs: 1
Page size: 4096

Off-chip DRAM Size: 4 GiB Channels: 1 Width: 64-bit Data Race: 800 MT/s
Heartbeat CPU 0 instructions: 10000000 cycles: 2500112 heartbeat IPC: 4 cumulative IPC: 4 (Simulation time: 00 hr 00 min 58 sec)
Heartbeat CPU 0 instructions: 20000002 cycles: 5001250 heartbeat IPC: 3.998 cumulative IPC: 3.999 (Simulation time: 00 hr 01 min 56 sec)
Warmup finished CPU 0 instructions: 25000000 cycles: 6251535 cumulative IPC: 3.999 (Simulation time: 00 hr 02 min 26 sec)
Warmup complete CPU 0 instructions: 25000000 cycles: 6251535 cumulative IPC: 3.999 (Simulation time: 00 hr 02 min 26 sec)
Heartbeat CPU 0 instructions: 30000002 cycles: 8845200 heartbeat IPC: 2.601 cumulative IPC: 1.928 (Simulation time: 00 hr 03 min 14 sec)
Heartbeat CPU 0 instructions: 40000003 cycles: 15452741 heartbeat IPC: 1.513 cumulative IPC: 1.63 (Simulation time: 00 hr 05 min 10 sec)
Heartbeat CPU 0 instructions: 50000001 cycles: 22525145 heartbeat IPC: 1.414 cumulative IPC: 1.536 (Simulation time: 00 hr 07 min 15 sec)
Simulation finished CPU 0 instructions: 25000001 cycles: 16273611 cumulative IPC: 1.536 (Simulation time: 00 hr 07 min 15 sec)
Simulation complete CPU 0 instructions: 25000001 cycles: 16273611 cumulative IPC: 1.536 (Simulation time: 00 hr 07 min 15 sec)

ChampSim completed all CPUs

=== Simulation ===
CPU 0 runs ./traces/hmmer_397B.trace.xz
Region of Interest Statistics

CPU 0 cumulative IPC: 1.536 instructions: 25000001 cycles: 16273611
CPU 0 Branch Prediction Accuracy: 99.17% MPKI: 0.3152 Average ROB Occupancy at Mispredict: 233.4
Branch type MPKI
BRANCH_DIRECT_JUMP: 8e-05
BRANCH_INDIRECT: 0.0002
BRANCH_CONDITIONAL: 0.315
BRANCH_DIRECT_CALL: 0
BRANCH_INDIRECT_CALL: 0
BRANCH_RETURN: 0.00012

LLC TOTAL        ACCESS:     156750 HIT:      84914 MISS:      71836
LLC LOAD         ACCESS:       6171 HIT:       4741 MISS:       1430
LLC RFO          ACCESS:      76978 HIT:       6733 MISS:      70245
LLC PREFETCH     ACCESS:          0 HIT:          0 MISS:          0
LLC WRITE        ACCESS:      73593 HIT:      73435 MISS:        158
LLC TRANSLATION  ACCESS:          8 HIT:          5 MISS:          3
LLC PREFETCH REQUESTED:          0 ISSUED:          0 USEFUL:          0 USELESS:          0
LLC AVERAGE MISS LATENCY: 2837 cycles
cpu0_DTLB TOTAL        ACCESS:    5423174 HIT:    5419313 MISS:       3861
cpu0_DTLB LOAD         ACCESS:    5423174 HIT:    5419313 MISS:       3861
cpu0_DTLB RFO          ACCESS:          0 HIT:          0 MISS:          0
cpu0_DTLB PREFETCH     ACCESS:          0 HIT:          0 MISS:          0
cpu0_DTLB WRITE        ACCESS:          0 HIT:          0 MISS:          0
cpu0_DTLB TRANSLATION  ACCESS:          0 HIT:          0 MISS:          0
cpu0_DTLB PREFETCH REQUESTED:          0 ISSUED:          0 USEFUL:          0 USELESS:          0
cpu0_DTLB AVERAGE MISS LATENCY: 12.93 cycles
cpu0_ITLB TOTAL        ACCESS:        659 HIT:        645 MISS:         14
cpu0_ITLB LOAD         ACCESS:        659 HIT:        645 MISS:         14
cpu0_ITLB RFO          ACCESS:          0 HIT:          0 MISS:          0
cpu0_ITLB PREFETCH     ACCESS:          0 HIT:          0 MISS:          0
cpu0_ITLB WRITE        ACCESS:          0 HIT:          0 MISS:          0
cpu0_ITLB TRANSLATION  ACCESS:          0 HIT:          0 MISS:          0
cpu0_ITLB PREFETCH REQUESTED:          0 ISSUED:          0 USEFUL:          0 USELESS:          0
cpu0_ITLB AVERAGE MISS LATENCY: 1.214 cycles
cpu0_L1D TOTAL        ACCESS:    7552251 HIT:    4467539 MISS:    3084712
cpu0_L1D LOAD         ACCESS:    4172016 HIT:    4092766 MISS:      79250
cpu0_L1D RFO          ACCESS:          0 HIT:          0 MISS:          0
cpu0_L1D PREFETCH     ACCESS:          0 HIT:          0 MISS:          0
cpu0_L1D WRITE        ACCESS:    3379980 HIT:     374718 MISS:    3005262
cpu0_L1D TRANSLATION  ACCESS:        255 HIT:         55 MISS:        200
cpu0_L1D PREFETCH REQUESTED:          0 ISSUED:          0 USEFUL:          0 USELESS:          0
cpu0_L1D AVERAGE MISS LATENCY: 55.45 cycles
cpu0_L1I TOTAL        ACCESS:        738 HIT:        712 MISS:         26
cpu0_L1I LOAD         ACCESS:        738 HIT:        712 MISS:         26
cpu0_L1I RFO          ACCESS:          0 HIT:          0 MISS:          0
cpu0_L1I PREFETCH     ACCESS:          0 HIT:          0 MISS:          0
cpu0_L1I WRITE        ACCESS:          0 HIT:          0 MISS:          0
cpu0_L1I TRANSLATION  ACCESS:          0 HIT:          0 MISS:          0
cpu0_L1I PREFETCH REQUESTED:          0 ISSUED:          0 USEFUL:          0 USELESS:          0
cpu0_L1I AVERAGE MISS LATENCY: 530.1 cycles
cpu0_L2C TOTAL        ACCESS:     203053 HIT:     119892 MISS:      83161
cpu0_L2C LOAD         ACCESS:      52059 HIT:      45888 MISS:       6171
cpu0_L2C RFO          ACCESS:      76998 HIT:         20 MISS:      76978
cpu0_L2C PREFETCH     ACCESS:          0 HIT:          0 MISS:          0
cpu0_L2C WRITE        ACCESS:      73796 HIT:      73792 MISS:          4
cpu0_L2C TRANSLATION  ACCESS:        200 HIT:        192 MISS:          8
cpu0_L2C PREFETCH REQUESTED:          0 ISSUED:          0 USEFUL:          0 USELESS:          0
cpu0_L2C AVERAGE MISS LATENCY: 2471 cycles
cpu0_STLB TOTAL        ACCESS:       1661 HIT:       1406 MISS:        255
cpu0_STLB LOAD         ACCESS:       1661 HIT:       1406 MISS:        255
cpu0_STLB RFO          ACCESS:          0 HIT:          0 MISS:          0
cpu0_STLB PREFETCH     ACCESS:          0 HIT:          0 MISS:          0
cpu0_STLB WRITE        ACCESS:          0 HIT:          0 MISS:          0
cpu0_STLB TRANSLATION  ACCESS:          0 HIT:          0 MISS:          0
cpu0_STLB PREFETCH REQUESTED:          0 ISSUED:          0 USEFUL:          0 USELESS:          0
cpu0_STLB AVERAGE MISS LATENCY: 246.6 cycles

DRAM Statistics

Channel 0 RQ ROW_BUFFER_HIT:      39148
  ROW_BUFFER_MISS:      32522
 AVG DBUS CONGESTED CYCLE: 3.958
WQ ROW_BUFFER_HIT: Channel 0 
  ROW_BUFFER_MISS:      11366
  FULL:      56680
