WARNING: physical memory size is smaller than virtual memory size.

*** ChampSim Multicore Out-of-Order Simulator ***
Warmup Instructions: 25000000
Simulation Instructions: 25000000
Number of CPUs: 1
Page size: 4096

Off-chip DRAM Size: 4 GiB Channels: 1 Width: 64-bit Data Race: 800 MT/s
Heartbeat CPU 0 instructions: 10000001 cycles: 2507956 heartbeat IPC: 3.987 cumulative IPC: 3.987 (Simulation time: 00 hr 00 min 33 sec)
Heartbeat CPU 0 instructions: 20000000 cycles: 5019726 heartbeat IPC: 3.981 cumulative IPC: 3.984 (Simulation time: 00 hr 01 min 09 sec)
Warmup finished CPU 0 instructions: 25000000 cycles: 6277627 cumulative IPC: 3.982 (Simulation time: 00 hr 01 min 28 sec)
Warmup complete CPU 0 instructions: 25000000 cycles: 6277627 cumulative IPC: 3.982 (Simulation time: 00 hr 01 min 28 sec)
Heartbeat CPU 0 instructions: 30000002 cycles: 28247805 heartbeat IPC: 0.4305 cumulative IPC: 0.2276 (Simulation time: 00 hr 04 min 26 sec)
Heartbeat CPU 0 instructions: 40000000 cycles: 72081117 heartbeat IPC: 0.2281 cumulative IPC: 0.228 (Simulation time: 00 hr 10 min 38 sec)
Heartbeat CPU 0 instructions: 50000002 cycles: 116225385 heartbeat IPC: 0.2265 cumulative IPC: 0.2274 (Simulation time: 00 hr 16 min 59 sec)
Simulation finished CPU 0 instructions: 25000002 cycles: 109947759 cumulative IPC: 0.2274 (Simulation time: 00 hr 16 min 59 sec)
Simulation complete CPU 0 instructions: 25000002 cycles: 109947759 cumulative IPC: 0.2274 (Simulation time: 00 hr 16 min 59 sec)

ChampSim completed all CPUs

=== Simulation ===
CPU 0 runs ./traces/lbm_1004B.trace.xz
Region of Interest Statistics

CPU 0 cumulative IPC: 0.2274 instructions: 25000002 cycles: 109947759
CPU 0 Branch Prediction Accuracy: 99.25% MPKI: 0.08728 Average ROB Occupancy at Mispredict: 257.2
Branch type MPKI
BRANCH_DIRECT_JUMP: 0
BRANCH_INDIRECT: 0
BRANCH_CONDITIONAL: 0.0873
BRANCH_DIRECT_CALL: 0
BRANCH_INDIRECT_CALL: 0
BRANCH_RETURN: 0

LLC TOTAL        ACCESS:    1300402 HIT:     560154 MISS:     740248
LLC LOAD         ACCESS:      87904 HIT:       1154 MISS:      86750
LLC RFO          ACCESS:     554568 HIT:       3996 MISS:     550572
LLC PREFETCH     ACCESS:     101575 HIT:        952 MISS:     100623
LLC WRITE        ACCESS:     556277 HIT:     554030 MISS:       2247
LLC TRANSLATION  ACCESS:         78 HIT:         22 MISS:         56
LLC PREFETCH REQUESTED:          0 ISSUED:          0 USEFUL:          0 USELESS:          0
LLC AVERAGE MISS LATENCY: 2103 cycles
cpu0_DTLB TOTAL        ACCESS:    4056313 HIT:    4041991 MISS:      14322
cpu0_DTLB LOAD         ACCESS:    4056313 HIT:    4041991 MISS:      14322
cpu0_DTLB RFO          ACCESS:          0 HIT:          0 MISS:          0
cpu0_DTLB PREFETCH     ACCESS:          0 HIT:          0 MISS:          0
cpu0_DTLB WRITE        ACCESS:          0 HIT:          0 MISS:          0
cpu0_DTLB TRANSLATION  ACCESS:          0 HIT:          0 MISS:          0
cpu0_DTLB PREFETCH REQUESTED:          0 ISSUED:          0 USEFUL:          0 USELESS:          0
cpu0_DTLB AVERAGE MISS LATENCY: 286.6 cycles
cpu0_ITLB TOTAL        ACCESS:          0 HIT:          0 MISS:          0
cpu0_ITLB LOAD         ACCESS:          0 HIT:          0 MISS:          0
cpu0_ITLB RFO          ACCESS:          0 HIT:          0 MISS:          0
cpu0_ITLB PREFETCH     ACCESS:          0 HIT:          0 MISS:          0
cpu0_ITLB WRITE        ACCESS:          0 HIT:          0 MISS:          0
cpu0_ITLB TRANSLATION  ACCESS:          0 HIT:          0 MISS:          0
cpu0_ITLB PREFETCH REQUESTED:          0 ISSUED:          0 USEFUL:          0 USELESS:          0
cpu0_ITLB AVERAGE MISS LATENCY: -nan cycles
cpu0_L1D TOTAL        ACCESS:    7184512 HIT:    3902540 MISS:    3281972
cpu0_L1D LOAD         ACCESS:    2167444 HIT:    1386704 MISS:     780740
cpu0_L1D RFO          ACCESS:          0 HIT:          0 MISS:          0
cpu0_L1D PREFETCH     ACCESS:    2466685 HIT:    1046369 MISS:    1420316
cpu0_L1D WRITE        ACCESS:    2538818 HIT:    1468470 MISS:    1070348
cpu0_L1D TRANSLATION  ACCESS:      11565 HIT:        997 MISS:      10568
cpu0_L1D PREFETCH REQUESTED:   10457576 ISSUED:    2466688 USEFUL:      73027 USELESS:       1735
cpu0_L1D AVERAGE MISS LATENCY: 394.7 cycles
cpu0_L1I TOTAL        ACCESS:          0 HIT:          0 MISS:          0
cpu0_L1I LOAD         ACCESS:          0 HIT:          0 MISS:          0
cpu0_L1I RFO          ACCESS:          0 HIT:          0 MISS:          0
cpu0_L1I PREFETCH     ACCESS:          0 HIT:          0 MISS:          0
cpu0_L1I WRITE        ACCESS:          0 HIT:          0 MISS:          0
cpu0_L1I TRANSLATION  ACCESS:          0 HIT:          0 MISS:          0
cpu0_L1I PREFETCH REQUESTED:          0 ISSUED:          0 USEFUL:          0 USELESS:          0
cpu0_L1I AVERAGE MISS LATENCY: -nan cycles
cpu0_L2C TOTAL        ACCESS:    2346419 HIT:    1600181 MISS:     746238
cpu0_L2C LOAD         ACCESS:     111754 HIT:      23639 MISS:      88115
cpu0_L2C RFO          ACCESS:    1042982 HIT:     488414 MISS:     554568
cpu0_L2C PREFETCH     ACCESS:     138135 HIT:      34658 MISS:     103477
cpu0_L2C WRITE        ACCESS:    1042980 HIT:    1042980 MISS:          0
cpu0_L2C TRANSLATION  ACCESS:      10568 HIT:      10490 MISS:         78
cpu0_L2C PREFETCH REQUESTED:      63376 ISSUED:      63376 USEFUL:      24697 USELESS:         39
cpu0_L2C AVERAGE MISS LATENCY: 2099 cycles
cpu0_STLB TOTAL        ACCESS:      11554 HIT:          0 MISS:      11554
cpu0_STLB LOAD         ACCESS:      11554 HIT:          0 MISS:      11554
cpu0_STLB RFO          ACCESS:          0 HIT:          0 MISS:          0
cpu0_STLB PREFETCH     ACCESS:          0 HIT:          0 MISS:          0
cpu0_STLB WRITE        ACCESS:          0 HIT:          0 MISS:          0
cpu0_STLB TRANSLATION  ACCESS:          0 HIT:          0 MISS:          0
cpu0_STLB PREFETCH REQUESTED:          0 ISSUED:          0 USEFUL:          0 USELESS:          0
cpu0_STLB AVERAGE MISS LATENCY: 363.5 cycles

DRAM Statistics

Channel 0 RQ ROW_BUFFER_HIT:      42311
  ROW_BUFFER_MISS:     694849
 AVG DBUS CONGESTED CYCLE: 3.98
WQ ROW_BUFFER_HIT: Channel 0 
  ROW_BUFFER_MISS:      31639
  FULL:     521916
