WARNING: physical memory size is smaller than virtual memory size.

*** ChampSim Multicore Out-of-Order Simulator ***
Warmup Instructions: 25000000
Simulation Instructions: 25000000
Number of CPUs: 1
Page size: 4096

Off-chip DRAM Size: 4 GiB Channels: 1 Width: 64-bit Data Race: 800 MT/s
Heartbeat CPU 0 instructions: 10000000 cycles: 2609785 heartbeat IPC: 3.832 cumulative IPC: 3.832 (Simulation time: 00 hr 00 min 34 sec)
Heartbeat CPU 0 instructions: 20000000 cycles: 5187816 heartbeat IPC: 3.879 cumulative IPC: 3.855 (Simulation time: 00 hr 01 min 11 sec)
Warmup finished CPU 0 instructions: 25000000 cycles: 6483963 cumulative IPC: 3.856 (Simulation time: 00 hr 01 min 30 sec)
Warmup complete CPU 0 instructions: 25000000 cycles: 6483963 cumulative IPC: 3.856 (Simulation time: 00 hr 01 min 30 sec)
Heartbeat CPU 0 instructions: 30000003 cycles: 31080582 heartbeat IPC: 0.3862 cumulative IPC: 0.2033 (Simulation time: 00 hr 04 min 43 sec)
Heartbeat CPU 0 instructions: 40000001 cycles: 80909133 heartbeat IPC: 0.2007 cumulative IPC: 0.2015 (Simulation time: 00 hr 11 min 38 sec)
Heartbeat CPU 0 instructions: 50000003 cycles: 129078994 heartbeat IPC: 0.2076 cumulative IPC: 0.2039 (Simulation time: 00 hr 18 min 36 sec)
Simulation finished CPU 0 instructions: 25000003 cycles: 122595032 cumulative IPC: 0.2039 (Simulation time: 00 hr 18 min 36 sec)
Simulation complete CPU 0 instructions: 25000003 cycles: 122595032 cumulative IPC: 0.2039 (Simulation time: 00 hr 18 min 36 sec)

ChampSim completed all CPUs

=== Simulation ===
CPU 0 runs ./traces/lbm_94B.trace.xz
Region of Interest Statistics

CPU 0 cumulative IPC: 0.2039 instructions: 25000003 cycles: 122595032
CPU 0 Branch Prediction Accuracy: 98.94% MPKI: 0.1259 Average ROB Occupancy at Mispredict: 267.2
Branch type MPKI
BRANCH_DIRECT_JUMP: 0
BRANCH_INDIRECT: 0
BRANCH_CONDITIONAL: 0.126
BRANCH_DIRECT_CALL: 0
BRANCH_INDIRECT_CALL: 0
BRANCH_RETURN: 0

LLC TOTAL        ACCESS:    1434600 HIT:     648702 MISS:     785898
LLC LOAD         ACCESS:      97119 HIT:       2014 MISS:      95105
LLC RFO          ACCESS:     614586 HIT:      29961 MISS:     584625
LLC PREFETCH     ACCESS:     105741 HIT:       1433 MISS:     104308
LLC WRITE        ACCESS:     616290 HIT:     614491 MISS:       1799
LLC TRANSLATION  ACCESS:        864 HIT:        803 MISS:         61
LLC PREFETCH REQUESTED:          0 ISSUED:          0 USEFUL:          0 USELESS:          0
LLC AVERAGE MISS LATENCY: 2192 cycles
cpu0_DTLB TOTAL        ACCESS:    4126858 HIT:    4110718 MISS:      16140
cpu0_DTLB LOAD         ACCESS:    4126858 HIT:    4110718 MISS:      16140
cpu0_DTLB RFO          ACCESS:          0 HIT:          0 MISS:          0
cpu0_DTLB PREFETCH     ACCESS:          0 HIT:          0 MISS:          0
cpu0_DTLB WRITE        ACCESS:          0 HIT:          0 MISS:          0
cpu0_DTLB TRANSLATION  ACCESS:          0 HIT:          0 MISS:          0
cpu0_DTLB PREFETCH REQUESTED:          0 ISSUED:          0 USEFUL:          0 USELESS:          0
cpu0_DTLB AVERAGE MISS LATENCY: 244.8 cycles
cpu0_ITLB TOTAL        ACCESS:          0 HIT:          0 MISS:          0
cpu0_ITLB LOAD         ACCESS:          0 HIT:          0 MISS:          0
cpu0_ITLB RFO          ACCESS:          0 HIT:          0 MISS:          0
cpu0_ITLB PREFETCH     ACCESS:          0 HIT:          0 MISS:          0
cpu0_ITLB WRITE        ACCESS:          0 HIT:          0 MISS:          0
cpu0_ITLB TRANSLATION  ACCESS:          0 HIT:          0 MISS:          0
cpu0_ITLB PREFETCH REQUESTED:          0 ISSUED:          0 USEFUL:          0 USELESS:          0
cpu0_ITLB AVERAGE MISS LATENCY: -nan cycles
cpu0_L1D TOTAL        ACCESS:    7250366 HIT:    3955695 MISS:    3294671
cpu0_L1D LOAD         ACCESS:    2172671 HIT:    1398137 MISS:     774534
cpu0_L1D RFO          ACCESS:          0 HIT:          0 MISS:          0
cpu0_L1D PREFETCH     ACCESS:    2455252 HIT:    1069514 MISS:    1385738
cpu0_L1D WRITE        ACCESS:    2610202 HIT:    1487024 MISS:    1123178
cpu0_L1D TRANSLATION  ACCESS:      12241 HIT:       1020 MISS:      11221
cpu0_L1D PREFETCH REQUESTED:   10334927 ISSUED:    2455257 USEFUL:      74130 USELESS:       1878
cpu0_L1D AVERAGE MISS LATENCY: 442 cycles
cpu0_L1I TOTAL        ACCESS:          0 HIT:          0 MISS:          0
cpu0_L1I LOAD         ACCESS:          0 HIT:          0 MISS:          0
cpu0_L1I RFO          ACCESS:          0 HIT:          0 MISS:          0
cpu0_L1I PREFETCH     ACCESS:          0 HIT:          0 MISS:          0
cpu0_L1I WRITE        ACCESS:          0 HIT:          0 MISS:          0
cpu0_L1I TRANSLATION  ACCESS:          0 HIT:          0 MISS:          0
cpu0_L1I PREFETCH REQUESTED:          0 ISSUED:          0 USEFUL:          0 USELESS:          0
cpu0_L1I AVERAGE MISS LATENCY: -nan cycles
cpu0_L2C TOTAL        ACCESS:    2478750 HIT:    1659808 MISS:     818942
cpu0_L2C LOAD         ACCESS:     121531 HIT:      24318 MISS:      97213
cpu0_L2C RFO          ACCESS:    1101929 HIT:     487342 MISS:     614587
cpu0_L2C PREFETCH     ACCESS:     142145 HIT:      35867 MISS:     106278
cpu0_L2C WRITE        ACCESS:    1101924 HIT:    1101924 MISS:          0
cpu0_L2C TRANSLATION  ACCESS:      11221 HIT:      10357 MISS:        864
cpu0_L2C PREFETCH REQUESTED:      66137 ISSUED:      66137 USEFUL:      25399 USELESS:         28
cpu0_L2C AVERAGE MISS LATENCY: 2115 cycles
cpu0_STLB TOTAL        ACCESS:      12229 HIT:          0 MISS:      12229
cpu0_STLB LOAD         ACCESS:      12229 HIT:          0 MISS:      12229
cpu0_STLB RFO          ACCESS:          0 HIT:          0 MISS:          0
cpu0_STLB PREFETCH     ACCESS:          0 HIT:          0 MISS:          0
cpu0_STLB WRITE        ACCESS:          0 HIT:          0 MISS:          0
cpu0_STLB TRANSLATION  ACCESS:          0 HIT:          0 MISS:          0
cpu0_STLB PREFETCH REQUESTED:          0 ISSUED:          0 USEFUL:          0 USELESS:          0
cpu0_STLB AVERAGE MISS LATENCY: 339.5 cycles

DRAM Statistics

Channel 0 RQ ROW_BUFFER_HIT:      45045
  ROW_BUFFER_MISS:     736972
 AVG DBUS CONGESTED CYCLE: 3.982
WQ ROW_BUFFER_HIT: Channel 0 
  ROW_BUFFER_MISS:      41880
  FULL:     544414
