WARNING: physical memory size is smaller than virtual memory size.

*** ChampSim Multicore Out-of-Order Simulator ***
Warmup Instructions: 25000000
Simulation Instructions: 25000000
Number of CPUs: 1
Page size: 4096

Off-chip DRAM Size: 4 GiB Channels: 1 Width: 64-bit Data Race: 800 MT/s
Heartbeat CPU 0 instructions: 10000000 cycles: 2507702 heartbeat IPC: 3.988 cumulative IPC: 3.988 (Simulation time: 00 hr 00 min 54 sec)
Heartbeat CPU 0 instructions: 20000003 cycles: 5019210 heartbeat IPC: 3.982 cumulative IPC: 3.985 (Simulation time: 00 hr 01 min 56 sec)
Warmup finished CPU 0 instructions: 25000003 cycles: 6276907 cumulative IPC: 3.983 (Simulation time: 00 hr 02 min 27 sec)
Warmup complete CPU 0 instructions: 25000003 cycles: 6276907 cumulative IPC: 3.983 (Simulation time: 00 hr 02 min 27 sec)
Heartbeat CPU 0 instructions: 30000002 cycles: 26528781 heartbeat IPC: 0.4649 cumulative IPC: 0.2469 (Simulation time: 00 hr 06 min 08 sec)
Heartbeat CPU 0 instructions: 40000002 cycles: 66826746 heartbeat IPC: 0.2482 cumulative IPC: 0.2477 (Simulation time: 00 hr 13 min 21 sec)
Heartbeat CPU 0 instructions: 50000000 cycles: 107587731 heartbeat IPC: 0.2453 cumulative IPC: 0.2468 (Simulation time: 00 hr 20 min 24 sec)
Simulation finished CPU 0 instructions: 25000001 cycles: 101310826 cumulative IPC: 0.2468 (Simulation time: 00 hr 20 min 24 sec)
Simulation complete CPU 0 instructions: 25000001 cycles: 101310826 cumulative IPC: 0.2468 (Simulation time: 00 hr 20 min 24 sec)

ChampSim completed all CPUs

=== Simulation ===
CPU 0 runs ./traces/lbm_1004B.trace.xz
Region of Interest Statistics

CPU 0 cumulative IPC: 0.2468 instructions: 25000001 cycles: 101310826
CPU 0 Branch Prediction Accuracy: 99.25% MPKI: 0.08728 Average ROB Occupancy at Mispredict: 257.1
Branch type MPKI
BRANCH_DIRECT_JUMP: 0
BRANCH_INDIRECT: 0
BRANCH_CONDITIONAL: 0.0873
BRANCH_DIRECT_CALL: 0
BRANCH_INDIRECT_CALL: 0
BRANCH_RETURN: 0

LLC TOTAL        ACCESS:    1297508 HIT:     558320 MISS:     739188
LLC LOAD         ACCESS:     184780 HIT:          0 MISS:     184780
LLC RFO          ACCESS:     556331 HIT:       4026 MISS:     552305
LLC PREFETCH     ACCESS:          0 HIT:          0 MISS:          0
LLC WRITE        ACCESS:     556319 HIT:     554272 MISS:       2047
LLC TRANSLATION  ACCESS:         78 HIT:         22 MISS:         56
LLC PREFETCH REQUESTED:          0 ISSUED:          0 USEFUL:          0 USELESS:          0
LLC AVERAGE MISS LATENCY: 1704 cycles
cpu0_DTLB TOTAL        ACCESS:    4167316 HIT:    4153553 MISS:      13763
cpu0_DTLB LOAD         ACCESS:    4167316 HIT:    4153553 MISS:      13763
cpu0_DTLB RFO          ACCESS:          0 HIT:          0 MISS:          0
cpu0_DTLB PREFETCH     ACCESS:          0 HIT:          0 MISS:          0
cpu0_DTLB WRITE        ACCESS:          0 HIT:          0 MISS:          0
cpu0_DTLB TRANSLATION  ACCESS:          0 HIT:          0 MISS:          0
cpu0_DTLB PREFETCH REQUESTED:          0 ISSUED:          0 USEFUL:          0 USELESS:          0
cpu0_DTLB AVERAGE MISS LATENCY: 235.6 cycles
cpu0_ITLB TOTAL        ACCESS:          0 HIT:          0 MISS:          0
cpu0_ITLB LOAD         ACCESS:          0 HIT:          0 MISS:          0
cpu0_ITLB RFO          ACCESS:          0 HIT:          0 MISS:          0
cpu0_ITLB PREFETCH     ACCESS:          0 HIT:          0 MISS:          0
cpu0_ITLB WRITE        ACCESS:          0 HIT:          0 MISS:          0
cpu0_ITLB TRANSLATION  ACCESS:          0 HIT:          0 MISS:          0
cpu0_ITLB PREFETCH REQUESTED:          0 ISSUED:          0 USEFUL:          0 USELESS:          0
cpu0_ITLB AVERAGE MISS LATENCY: -nan cycles
cpu0_L1D TOTAL        ACCESS:    5041021 HIT:    2491701 MISS:    2549320
cpu0_L1D LOAD         ACCESS:    2488639 HIT:    1013909 MISS:    1474730
cpu0_L1D RFO          ACCESS:          0 HIT:          0 MISS:          0
cpu0_L1D PREFETCH     ACCESS:          0 HIT:          0 MISS:          0
cpu0_L1D WRITE        ACCESS:    2540817 HIT:    1476650 MISS:    1064167
cpu0_L1D TRANSLATION  ACCESS:      11565 HIT:       1142 MISS:      10423
cpu0_L1D PREFETCH REQUESTED:          0 ISSUED:          0 USEFUL:          0 USELESS:          0
cpu0_L1D AVERAGE MISS LATENCY: 455.3 cycles
cpu0_L1I TOTAL        ACCESS:          0 HIT:          0 MISS:          0
cpu0_L1I LOAD         ACCESS:          0 HIT:          0 MISS:          0
cpu0_L1I RFO          ACCESS:          0 HIT:          0 MISS:          0
cpu0_L1I PREFETCH     ACCESS:          0 HIT:          0 MISS:          0
cpu0_L1I WRITE        ACCESS:          0 HIT:          0 MISS:          0
cpu0_L1I TRANSLATION  ACCESS:          0 HIT:          0 MISS:          0
cpu0_L1I PREFETCH REQUESTED:          0 ISSUED:          0 USEFUL:          0 USELESS:          0
cpu0_L1I AVERAGE MISS LATENCY: -nan cycles
cpu0_L2C TOTAL        ACCESS:    2280440 HIT:    1539250 MISS:     741190
cpu0_L2C LOAD         ACCESS:     184781 HIT:          0 MISS:     184781
cpu0_L2C RFO          ACCESS:    1042619 HIT:     486288 MISS:     556331
cpu0_L2C PREFETCH     ACCESS:          0 HIT:          0 MISS:          0
cpu0_L2C WRITE        ACCESS:    1042617 HIT:    1042617 MISS:          0
cpu0_L2C TRANSLATION  ACCESS:      10423 HIT:      10345 MISS:         78
cpu0_L2C PREFETCH REQUESTED:          0 ISSUED:          0 USEFUL:          0 USELESS:          0
cpu0_L2C AVERAGE MISS LATENCY: 1720 cycles
cpu0_STLB TOTAL        ACCESS:      11554 HIT:          0 MISS:      11554
cpu0_STLB LOAD         ACCESS:      11554 HIT:          0 MISS:      11554
cpu0_STLB RFO          ACCESS:          0 HIT:          0 MISS:          0
cpu0_STLB PREFETCH     ACCESS:          0 HIT:          0 MISS:          0
cpu0_STLB WRITE        ACCESS:          0 HIT:          0 MISS:          0
cpu0_STLB TRANSLATION  ACCESS:          0 HIT:          0 MISS:          0
cpu0_STLB PREFETCH REQUESTED:          0 ISSUED:          0 USEFUL:          0 USELESS:          0
cpu0_STLB AVERAGE MISS LATENCY: 287.8 cycles

DRAM Statistics

Channel 0 RQ ROW_BUFFER_HIT:      56161
  ROW_BUFFER_MISS:     680970
 AVG DBUS CONGESTED CYCLE: 3.981
WQ ROW_BUFFER_HIT: Channel 0 
  ROW_BUFFER_MISS:      22682
  FULL:     530763
