WARNING: physical memory size is smaller than virtual memory size.

*** ChampSim Multicore Out-of-Order Simulator ***
Warmup Instructions: 25000000
Simulation Instructions: 25000000
Number of CPUs: 1
Page size: 4096

Off-chip DRAM Size: 4 GiB Channels: 1 Width: 64-bit Data Race: 800 MT/s
Heartbeat CPU 0 instructions: 10000002 cycles: 2608371 heartbeat IPC: 3.834 cumulative IPC: 3.834 (Simulation time: 00 hr 01 min 02 sec)
Heartbeat CPU 0 instructions: 20000001 cycles: 5185026 heartbeat IPC: 3.881 cumulative IPC: 3.857 (Simulation time: 00 hr 02 min 08 sec)
Warmup finished CPU 0 instructions: 25000000 cycles: 6480462 cumulative IPC: 3.858 (Simulation time: 00 hr 02 min 36 sec)
Warmup complete CPU 0 instructions: 25000000 cycles: 6480462 cumulative IPC: 3.858 (Simulation time: 00 hr 02 min 36 sec)
Heartbeat CPU 0 instructions: 30000003 cycles: 29158615 heartbeat IPC: 0.4171 cumulative IPC: 0.2205 (Simulation time: 00 hr 06 min 32 sec)
Heartbeat CPU 0 instructions: 40000000 cycles: 75193074 heartbeat IPC: 0.2172 cumulative IPC: 0.2183 (Simulation time: 00 hr 14 min 45 sec)
Heartbeat CPU 0 instructions: 50000003 cycles: 119471752 heartbeat IPC: 0.2258 cumulative IPC: 0.2213 (Simulation time: 00 hr 22 min 22 sec)
Simulation finished CPU 0 instructions: 25000003 cycles: 112991291 cumulative IPC: 0.2213 (Simulation time: 00 hr 22 min 22 sec)
Simulation complete CPU 0 instructions: 25000003 cycles: 112991291 cumulative IPC: 0.2213 (Simulation time: 00 hr 22 min 22 sec)

ChampSim completed all CPUs

=== Simulation ===
CPU 0 runs ./traces/lbm_94B.trace.xz
Region of Interest Statistics

CPU 0 cumulative IPC: 0.2213 instructions: 25000003 cycles: 112991291
CPU 0 Branch Prediction Accuracy: 98.94% MPKI: 0.1259 Average ROB Occupancy at Mispredict: 268.5
Branch type MPKI
BRANCH_DIRECT_JUMP: 0
BRANCH_INDIRECT: 0
BRANCH_CONDITIONAL: 0.126
BRANCH_DIRECT_CALL: 0
BRANCH_INDIRECT_CALL: 0
BRANCH_RETURN: 0

LLC TOTAL        ACCESS:    1427923 HIT:     643731 MISS:     784192
LLC LOAD         ACCESS:     195529 HIT:         42 MISS:     195487
LLC RFO          ACCESS:     615782 HIT:      29318 MISS:     586464
LLC PREFETCH     ACCESS:          0 HIT:          0 MISS:          0
LLC WRITE        ACCESS:     615780 HIT:     613606 MISS:       2174
LLC TRANSLATION  ACCESS:        832 HIT:        765 MISS:         67
LLC PREFETCH REQUESTED:          0 ISSUED:          0 USEFUL:          0 USELESS:          0
LLC AVERAGE MISS LATENCY: 1801 cycles
cpu0_DTLB TOTAL        ACCESS:    4227559 HIT:    4212435 MISS:      15124
cpu0_DTLB LOAD         ACCESS:    4227559 HIT:    4212435 MISS:      15124
cpu0_DTLB RFO          ACCESS:          0 HIT:          0 MISS:          0
cpu0_DTLB PREFETCH     ACCESS:          0 HIT:          0 MISS:          0
cpu0_DTLB WRITE        ACCESS:          0 HIT:          0 MISS:          0
cpu0_DTLB TRANSLATION  ACCESS:          0 HIT:          0 MISS:          0
cpu0_DTLB PREFETCH REQUESTED:          0 ISSUED:          0 USEFUL:          0 USELESS:          0
cpu0_DTLB AVERAGE MISS LATENCY: 183.1 cycles
cpu0_ITLB TOTAL        ACCESS:          0 HIT:          0 MISS:          0
cpu0_ITLB LOAD         ACCESS:          0 HIT:          0 MISS:          0
cpu0_ITLB RFO          ACCESS:          0 HIT:          0 MISS:          0
cpu0_ITLB PREFETCH     ACCESS:          0 HIT:          0 MISS:          0
cpu0_ITLB WRITE        ACCESS:          0 HIT:          0 MISS:          0
cpu0_ITLB TRANSLATION  ACCESS:          0 HIT:          0 MISS:          0
cpu0_ITLB PREFETCH REQUESTED:          0 ISSUED:          0 USEFUL:          0 USELESS:          0
cpu0_ITLB AVERAGE MISS LATENCY: -nan cycles
cpu0_L1D TOTAL        ACCESS:    5120889 HIT:    2523763 MISS:    2597126
cpu0_L1D LOAD         ACCESS:    2497064 HIT:    1034066 MISS:    1462998
cpu0_L1D RFO          ACCESS:          0 HIT:          0 MISS:          0
cpu0_L1D PREFETCH     ACCESS:          0 HIT:          0 MISS:          0
cpu0_L1D WRITE        ACCESS:    2611584 HIT:    1488531 MISS:    1123053
cpu0_L1D TRANSLATION  ACCESS:      12241 HIT:       1166 MISS:      11075
cpu0_L1D PREFETCH REQUESTED:          0 ISSUED:          0 USEFUL:          0 USELESS:          0
cpu0_L1D AVERAGE MISS LATENCY: 503.3 cycles
cpu0_L1I TOTAL        ACCESS:          0 HIT:          0 MISS:          0
cpu0_L1I LOAD         ACCESS:          0 HIT:          0 MISS:          0
cpu0_L1I RFO          ACCESS:          0 HIT:          0 MISS:          0
cpu0_L1I PREFETCH     ACCESS:          0 HIT:          0 MISS:          0
cpu0_L1I WRITE        ACCESS:          0 HIT:          0 MISS:          0
cpu0_L1I TRANSLATION  ACCESS:          0 HIT:          0 MISS:          0
cpu0_L1I PREFETCH REQUESTED:          0 ISSUED:          0 USEFUL:          0 USELESS:          0
cpu0_L1I AVERAGE MISS LATENCY: -nan cycles
cpu0_L2C TOTAL        ACCESS:    2410566 HIT:    1598422 MISS:     812144
cpu0_L2C LOAD         ACCESS:     195655 HIT:        126 MISS:     195529
cpu0_L2C RFO          ACCESS:    1101900 HIT:     486117 MISS:     615783
cpu0_L2C PREFETCH     ACCESS:          0 HIT:          0 MISS:          0
cpu0_L2C WRITE        ACCESS:    1101936 HIT:    1101936 MISS:          0
cpu0_L2C TRANSLATION  ACCESS:      11075 HIT:      10243 MISS:        832
cpu0_L2C PREFETCH REQUESTED:          0 ISSUED:          0 USEFUL:          0 USELESS:          0
cpu0_L2C AVERAGE MISS LATENCY: 1760 cycles
cpu0_STLB TOTAL        ACCESS:      12229 HIT:          0 MISS:      12229
cpu0_STLB LOAD         ACCESS:      12229 HIT:          0 MISS:      12229
cpu0_STLB RFO          ACCESS:          0 HIT:          0 MISS:          0
cpu0_STLB PREFETCH     ACCESS:          0 HIT:          0 MISS:          0
cpu0_STLB WRITE        ACCESS:          0 HIT:          0 MISS:          0
cpu0_STLB TRANSLATION  ACCESS:          0 HIT:          0 MISS:          0
cpu0_STLB PREFETCH REQUESTED:          0 ISSUED:          0 USEFUL:          0 USELESS:          0
cpu0_STLB AVERAGE MISS LATENCY: 240.7 cycles

DRAM Statistics

Channel 0 RQ ROW_BUFFER_HIT:      57254
  ROW_BUFFER_MISS:     724760
 AVG DBUS CONGESTED CYCLE: 3.981
WQ ROW_BUFFER_HIT: Channel 0 
  ROW_BUFFER_MISS:      41442
  FULL:     544781
