WARNING: physical memory size is smaller than virtual memory size.

*** ChampSim Multicore Out-of-Order Simulator ***
Warmup Instructions: 25000000
Simulation Instructions: 25000000
Number of CPUs: 1
Page size: 4096

Off-chip DRAM Size: 4 GiB Channels: 1 Width: 64-bit Data Race: 800 MT/s
Heartbeat CPU 0 instructions: 10000001 cycles: 2511628 heartbeat IPC: 3.981 cumulative IPC: 3.981 (Simulation time: 00 hr 00 min 58 sec)
Heartbeat CPU 0 instructions: 20000002 cycles: 5023124 heartbeat IPC: 3.982 cumulative IPC: 3.982 (Simulation time: 00 hr 01 min 58 sec)
Warmup finished CPU 0 instructions: 25000000 cycles: 6663988 cumulative IPC: 3.752 (Simulation time: 00 hr 02 min 40 sec)
Warmup complete CPU 0 instructions: 25000000 cycles: 6663988 cumulative IPC: 3.752 (Simulation time: 00 hr 02 min 40 sec)
Heartbeat CPU 0 instructions: 30000001 cycles: 31462088 heartbeat IPC: 0.3782 cumulative IPC: 0.2016 (Simulation time: 00 hr 06 min 59 sec)
Heartbeat CPU 0 instructions: 40000001 cycles: 74100988 heartbeat IPC: 0.2345 cumulative IPC: 0.2224 (Simulation time: 00 hr 14 min 28 sec)
Heartbeat CPU 0 instructions: 50000000 cycles: 116422508 heartbeat IPC: 0.2363 cumulative IPC: 0.2278 (Simulation time: 00 hr 21 min 56 sec)
Simulation finished CPU 0 instructions: 25000000 cycles: 109758521 cumulative IPC: 0.2278 (Simulation time: 00 hr 21 min 56 sec)
Simulation complete CPU 0 instructions: 25000000 cycles: 109758521 cumulative IPC: 0.2278 (Simulation time: 00 hr 21 min 56 sec)

ChampSim completed all CPUs

=== Simulation ===
CPU 0 runs ./traces/lbm_564B.trace.xz
Region of Interest Statistics

CPU 0 cumulative IPC: 0.2278 instructions: 25000000 cycles: 109758521
CPU 0 Branch Prediction Accuracy: 99.23% MPKI: 0.094 Average ROB Occupancy at Mispredict: 254.6
Branch type MPKI
BRANCH_DIRECT_JUMP: 0
BRANCH_INDIRECT: 0
BRANCH_CONDITIONAL: 0.094
BRANCH_DIRECT_CALL: 0
BRANCH_INDIRECT_CALL: 0
BRANCH_RETURN: 0

LLC TOTAL        ACCESS:    1385105 HIT:     620605 MISS:     764500
LLC LOAD         ACCESS:     190832 HIT:          0 MISS:     190832
LLC RFO          ACCESS:     596471 HIT:      24032 MISS:     572439
LLC PREFETCH     ACCESS:          0 HIT:          0 MISS:          0
LLC WRITE        ACCESS:     597071 HIT:     595913 MISS:       1158
LLC TRANSLATION  ACCESS:        731 HIT:        660 MISS:         71
LLC PREFETCH REQUESTED:          0 ISSUED:          0 USEFUL:          0 USELESS:          0
LLC AVERAGE MISS LATENCY: 1800 cycles
cpu0_DTLB TOTAL        ACCESS:    4217960 HIT:    4203048 MISS:      14912
cpu0_DTLB LOAD         ACCESS:    4217960 HIT:    4203048 MISS:      14912
cpu0_DTLB RFO          ACCESS:          0 HIT:          0 MISS:          0
cpu0_DTLB PREFETCH     ACCESS:          0 HIT:          0 MISS:          0
cpu0_DTLB WRITE        ACCESS:          0 HIT:          0 MISS:          0
cpu0_DTLB TRANSLATION  ACCESS:          0 HIT:          0 MISS:          0
cpu0_DTLB PREFETCH REQUESTED:          0 ISSUED:          0 USEFUL:          0 USELESS:          0
cpu0_DTLB AVERAGE MISS LATENCY: 192.7 cycles
cpu0_ITLB TOTAL        ACCESS:          0 HIT:          0 MISS:          0
cpu0_ITLB LOAD         ACCESS:          0 HIT:          0 MISS:          0
cpu0_ITLB RFO          ACCESS:          0 HIT:          0 MISS:          0
cpu0_ITLB PREFETCH     ACCESS:          0 HIT:          0 MISS:          0
cpu0_ITLB WRITE        ACCESS:          0 HIT:          0 MISS:          0
cpu0_ITLB TRANSLATION  ACCESS:          0 HIT:          0 MISS:          0
cpu0_ITLB PREFETCH REQUESTED:          0 ISSUED:          0 USEFUL:          0 USELESS:          0
cpu0_ITLB AVERAGE MISS LATENCY: -nan cycles
cpu0_L1D TOTAL        ACCESS:    5128605 HIT:    2542609 MISS:    2585996
cpu0_L1D LOAD         ACCESS:    2504412 HIT:    1023323 MISS:    1481089
cpu0_L1D RFO          ACCESS:          0 HIT:          0 MISS:          0
cpu0_L1D PREFETCH     ACCESS:          0 HIT:          0 MISS:          0
cpu0_L1D WRITE        ACCESS:    2612246 HIT:    1518190 MISS:    1094056
cpu0_L1D TRANSLATION  ACCESS:      11947 HIT:       1096 MISS:      10851
cpu0_L1D PREFETCH REQUESTED:          0 ISSUED:          0 USEFUL:          0 USELESS:          0
cpu0_L1D AVERAGE MISS LATENCY: 491.4 cycles
cpu0_L1I TOTAL        ACCESS:          0 HIT:          0 MISS:          0
cpu0_L1I LOAD         ACCESS:          0 HIT:          0 MISS:          0
cpu0_L1I RFO          ACCESS:          0 HIT:          0 MISS:          0
cpu0_L1I PREFETCH     ACCESS:          0 HIT:          0 MISS:          0
cpu0_L1I WRITE        ACCESS:          0 HIT:          0 MISS:          0
cpu0_L1I TRANSLATION  ACCESS:          0 HIT:          0 MISS:          0
cpu0_L1I PREFETCH REQUESTED:          0 ISSUED:          0 USEFUL:          0 USELESS:          0
cpu0_L1I AVERAGE MISS LATENCY: -nan cycles
cpu0_L2C TOTAL        ACCESS:    2352730 HIT:    1564695 MISS:     788035
cpu0_L2C LOAD         ACCESS:     190883 HIT:         50 MISS:     190833
cpu0_L2C RFO          ACCESS:    1075474 HIT:     479003 MISS:     596471
cpu0_L2C PREFETCH     ACCESS:          0 HIT:          0 MISS:          0
cpu0_L2C WRITE        ACCESS:    1075522 HIT:    1075522 MISS:          0
cpu0_L2C TRANSLATION  ACCESS:      10851 HIT:      10120 MISS:        731
cpu0_L2C PREFETCH REQUESTED:          0 ISSUED:          0 USEFUL:          0 USELESS:          0
cpu0_L2C AVERAGE MISS LATENCY: 1767 cycles
cpu0_STLB TOTAL        ACCESS:      11936 HIT:          0 MISS:      11936
cpu0_STLB LOAD         ACCESS:      11936 HIT:          0 MISS:      11936
cpu0_STLB RFO          ACCESS:          0 HIT:          0 MISS:          0
cpu0_STLB PREFETCH     ACCESS:          0 HIT:          0 MISS:          0
cpu0_STLB WRITE        ACCESS:          0 HIT:          0 MISS:          0
cpu0_STLB TRANSLATION  ACCESS:          0 HIT:          0 MISS:          0
cpu0_STLB PREFETCH REQUESTED:          0 ISSUED:          0 USEFUL:          0 USELESS:          0
cpu0_STLB AVERAGE MISS LATENCY: 251 cycles

DRAM Statistics

Channel 0 RQ ROW_BUFFER_HIT:      50449
  ROW_BUFFER_MISS:     712878
 AVG DBUS CONGESTED CYCLE: 3.981
WQ ROW_BUFFER_HIT: Channel 0 
  ROW_BUFFER_MISS:      39948
  FULL:     540446
