WARNING: physical memory size is smaller than virtual memory size.

*** ChampSim Multicore Out-of-Order Simulator ***
Warmup Instructions: 25000000
Simulation Instructions: 25000000
Number of CPUs: 1
Page size: 4096

Off-chip DRAM Size: 4 GiB Channels: 1 Width: 64-bit Data Race: 800 MT/s
Heartbeat CPU 0 instructions: 10000000 cycles: 2526199 heartbeat IPC: 3.959 cumulative IPC: 3.959 (Simulation time: 00 hr 00 min 40 sec)
Heartbeat CPU 0 instructions: 20000000 cycles: 5052242 heartbeat IPC: 3.959 cumulative IPC: 3.959 (Simulation time: 00 hr 01 min 23 sec)
Warmup finished CPU 0 instructions: 25000002 cycles: 6315219 cumulative IPC: 3.959 (Simulation time: 00 hr 01 min 45 sec)
Warmup complete CPU 0 instructions: 25000002 cycles: 6315219 cumulative IPC: 3.959 (Simulation time: 00 hr 01 min 45 sec)
Heartbeat CPU 0 instructions: 30000003 cycles: 13100591 heartbeat IPC: 1.242 cumulative IPC: 0.7369 (Simulation time: 00 hr 03 min 00 sec)
Heartbeat CPU 0 instructions: 40000001 cycles: 33345358 heartbeat IPC: 0.494 cumulative IPC: 0.5549 (Simulation time: 00 hr 06 min 23 sec)
Heartbeat CPU 0 instructions: 50000003 cycles: 71659895 heartbeat IPC: 0.261 cumulative IPC: 0.3826 (Simulation time: 00 hr 12 min 33 sec)
Simulation finished CPU 0 instructions: 25000001 cycles: 65344677 cumulative IPC: 0.3826 (Simulation time: 00 hr 12 min 33 sec)
Simulation complete CPU 0 instructions: 25000001 cycles: 65344677 cumulative IPC: 0.3826 (Simulation time: 00 hr 12 min 33 sec)

ChampSim completed all CPUs

=== Simulation ===
CPU 0 runs ./traces/leslie3d_1116B.trace.xz
Region of Interest Statistics

CPU 0 cumulative IPC: 0.3826 instructions: 25000001 cycles: 65344677
CPU 0 Branch Prediction Accuracy: 98.2% MPKI: 1.067 Average ROB Occupancy at Mispredict: 297.2
Branch type MPKI
BRANCH_DIRECT_JUMP: 0.00032
BRANCH_INDIRECT: 0
BRANCH_CONDITIONAL: 1.06
BRANCH_DIRECT_CALL: 0.00228
BRANCH_INDIRECT_CALL: 0
BRANCH_RETURN: 0.0022

LLC TOTAL        ACCESS:    1148144 HIT:     277160 MISS:     870984
LLC LOAD         ACCESS:     128800 HIT:       9195 MISS:     119605
LLC RFO          ACCESS:     253609 HIT:        117 MISS:     253492
LLC PREFETCH     ACCESS:     510591 HIT:      13310 MISS:     497281
LLC WRITE        ACCESS:     253359 HIT:     253027 MISS:        332
LLC TRANSLATION  ACCESS:       1785 HIT:       1511 MISS:        274
LLC PREFETCH REQUESTED:          0 ISSUED:          0 USEFUL:          0 USELESS:          0
LLC AVERAGE MISS LATENCY: 1030 cycles
cpu0_DTLB TOTAL        ACCESS:    5865551 HIT:    5789846 MISS:      75705
cpu0_DTLB LOAD         ACCESS:    5865551 HIT:    5789846 MISS:      75705
cpu0_DTLB RFO          ACCESS:          0 HIT:          0 MISS:          0
cpu0_DTLB PREFETCH     ACCESS:          0 HIT:          0 MISS:          0
cpu0_DTLB WRITE        ACCESS:          0 HIT:          0 MISS:          0
cpu0_DTLB TRANSLATION  ACCESS:          0 HIT:          0 MISS:          0
cpu0_DTLB PREFETCH REQUESTED:          0 ISSUED:          0 USEFUL:          0 USELESS:          0
cpu0_DTLB AVERAGE MISS LATENCY: 20.53 cycles
cpu0_ITLB TOTAL        ACCESS:      73823 HIT:      73800 MISS:         23
cpu0_ITLB LOAD         ACCESS:      73823 HIT:      73800 MISS:         23
cpu0_ITLB RFO          ACCESS:          0 HIT:          0 MISS:          0
cpu0_ITLB PREFETCH     ACCESS:          0 HIT:          0 MISS:          0
cpu0_ITLB WRITE        ACCESS:          0 HIT:          0 MISS:          0
cpu0_ITLB TRANSLATION  ACCESS:          0 HIT:          0 MISS:          0
cpu0_ITLB PREFETCH REQUESTED:          0 ISSUED:          0 USEFUL:          0 USELESS:          0
cpu0_ITLB AVERAGE MISS LATENCY: 266 cycles
cpu0_L1D TOTAL        ACCESS:   11315389 HIT:    6932138 MISS:    4383251
cpu0_L1D LOAD         ACCESS:    5371388 HIT:    3940426 MISS:    1430962
cpu0_L1D RFO          ACCESS:          0 HIT:          0 MISS:          0
cpu0_L1D PREFETCH     ACCESS:    2744019 HIT:    1890708 MISS:     853311
cpu0_L1D WRITE        ACCESS:    3190530 HIT:    1093952 MISS:    2096578
cpu0_L1D TRANSLATION  ACCESS:       9452 HIT:       7052 MISS:       2400
cpu0_L1D PREFETCH REQUESTED:   12006064 ISSUED:    2744022 USEFUL:     244719 USELESS:      14150
cpu0_L1D AVERAGE MISS LATENCY: 150.4 cycles
cpu0_L1I TOTAL        ACCESS:      97769 HIT:      97565 MISS:        204
cpu0_L1I LOAD         ACCESS:      97769 HIT:      97565 MISS:        204
cpu0_L1I RFO          ACCESS:          0 HIT:          0 MISS:          0
cpu0_L1I PREFETCH     ACCESS:          0 HIT:          0 MISS:          0
cpu0_L1I WRITE        ACCESS:          0 HIT:          0 MISS:          0
cpu0_L1I TRANSLATION  ACCESS:          0 HIT:          0 MISS:          0
cpu0_L1I PREFETCH REQUESTED:          0 ISSUED:          0 USEFUL:          0 USELESS:          0
cpu0_L1I AVERAGE MISS LATENCY: 300.7 cycles
cpu0_L2C TOTAL        ACCESS:    1930719 HIT:     769564 MISS:    1161155
cpu0_L2C LOAD         ACCESS:     302983 HIT:     125581 MISS:     177402
cpu0_L2C RFO          ACCESS:     314303 HIT:      60693 MISS:     253610
cpu0_L2C PREFETCH     ACCESS:     956614 HIT:     228351 MISS:     728263
cpu0_L2C WRITE        ACCESS:     354424 HIT:     354329 MISS:         95
cpu0_L2C TRANSLATION  ACCESS:       2395 HIT:        610 MISS:       1785
cpu0_L2C PREFETCH REQUESTED:     697774 ISSUED:     697736 USEFUL:      80245 USELESS:      74066
cpu0_L2C AVERAGE MISS LATENCY: 724.8 cycles
cpu0_STLB TOTAL        ACCESS:      15239 HIT:       5798 MISS:       9441
cpu0_STLB LOAD         ACCESS:      15239 HIT:       5798 MISS:       9441
cpu0_STLB RFO          ACCESS:          0 HIT:          0 MISS:          0
cpu0_STLB PREFETCH     ACCESS:          0 HIT:          0 MISS:          0
cpu0_STLB WRITE        ACCESS:          0 HIT:          0 MISS:          0
cpu0_STLB TRANSLATION  ACCESS:          0 HIT:          0 MISS:          0
cpu0_STLB PREFETCH REQUESTED:          0 ISSUED:          0 USEFUL:          0 USELESS:          0
cpu0_STLB AVERAGE MISS LATENCY: 232.4 cycles

DRAM Statistics

Channel 0 RQ ROW_BUFFER_HIT:     246686
  ROW_BUFFER_MISS:     407973
 AVG DBUS CONGESTED CYCLE: 3.941
WQ ROW_BUFFER_HIT: Channel 0 
  ROW_BUFFER_MISS:      20913
  FULL:     227731
