WARNING: physical memory size is smaller than virtual memory size.

*** ChampSim Multicore Out-of-Order Simulator ***
Warmup Instructions: 25000000
Simulation Instructions: 25000000
Number of CPUs: 1
Page size: 4096

Off-chip DRAM Size: 4 GiB Channels: 1 Width: 64-bit Data Race: 800 MT/s
Heartbeat CPU 0 instructions: 10000000 cycles: 2656291 heartbeat IPC: 3.765 cumulative IPC: 3.765 (Simulation time: 00 hr 01 min 09 sec)
Heartbeat CPU 0 instructions: 20000002 cycles: 5176822 heartbeat IPC: 3.967 cumulative IPC: 3.863 (Simulation time: 00 hr 02 min 08 sec)
Warmup finished CPU 0 instructions: 25000002 cycles: 6426824 cumulative IPC: 3.89 (Simulation time: 00 hr 02 min 38 sec)
Warmup complete CPU 0 instructions: 25000002 cycles: 6426824 cumulative IPC: 3.89 (Simulation time: 00 hr 02 min 38 sec)
Heartbeat CPU 0 instructions: 30000003 cycles: 47084000 heartbeat IPC: 0.2386 cumulative IPC: 0.123 (Simulation time: 00 hr 10 min 28 sec)
Heartbeat CPU 0 instructions: 40000002 cycles: 58406482 heartbeat IPC: 0.8832 cumulative IPC: 0.2886 (Simulation time: 00 hr 13 min 30 sec)
Heartbeat CPU 0 instructions: 50000003 cycles: 69730586 heartbeat IPC: 0.8831 cumulative IPC: 0.3949 (Simulation time: 00 hr 16 min 27 sec)
Simulation finished CPU 0 instructions: 25000001 cycles: 63303763 cumulative IPC: 0.3949 (Simulation time: 00 hr 16 min 27 sec)
Simulation complete CPU 0 instructions: 25000001 cycles: 63303763 cumulative IPC: 0.3949 (Simulation time: 00 hr 16 min 27 sec)

ChampSim completed all CPUs

=== Simulation ===
CPU 0 runs ./traces/leslie3d_94B.trace.xz
Region of Interest Statistics

CPU 0 cumulative IPC: 0.3949 instructions: 25000001 cycles: 63303763
CPU 0 Branch Prediction Accuracy: 98.16% MPKI: 0.7514 Average ROB Occupancy at Mispredict: 333.1
Branch type MPKI
BRANCH_DIRECT_JUMP: 0.00032
BRANCH_INDIRECT: 0
BRANCH_CONDITIONAL: 0.751
BRANCH_DIRECT_CALL: 4e-05
BRANCH_INDIRECT_CALL: 0
BRANCH_RETURN: 8e-05

LLC TOTAL        ACCESS:     884231 HIT:     374173 MISS:     510058
LLC LOAD         ACCESS:     629452 HIT:     176380 MISS:     453072
LLC RFO          ACCESS:      89214 HIT:      33252 MISS:      55962
LLC PREFETCH     ACCESS:          0 HIT:          0 MISS:          0
LLC WRITE        ACCESS:     164748 HIT:     164023 MISS:        725
LLC TRANSLATION  ACCESS:        817 HIT:        518 MISS:        299
LLC PREFETCH REQUESTED:          0 ISSUED:          0 USEFUL:          0 USELESS:          0
LLC AVERAGE MISS LATENCY: 1425 cycles
cpu0_DTLB TOTAL        ACCESS:    7172885 HIT:    7103680 MISS:      69205
cpu0_DTLB LOAD         ACCESS:    7172885 HIT:    7103680 MISS:      69205
cpu0_DTLB RFO          ACCESS:          0 HIT:          0 MISS:          0
cpu0_DTLB PREFETCH     ACCESS:          0 HIT:          0 MISS:          0
cpu0_DTLB WRITE        ACCESS:          0 HIT:          0 MISS:          0
cpu0_DTLB TRANSLATION  ACCESS:          0 HIT:          0 MISS:          0
cpu0_DTLB PREFETCH REQUESTED:          0 ISSUED:          0 USEFUL:          0 USELESS:          0
cpu0_DTLB AVERAGE MISS LATENCY: 30.94 cycles
cpu0_ITLB TOTAL        ACCESS:     176715 HIT:     176702 MISS:         13
cpu0_ITLB LOAD         ACCESS:     176715 HIT:     176702 MISS:         13
cpu0_ITLB RFO          ACCESS:          0 HIT:          0 MISS:          0
cpu0_ITLB PREFETCH     ACCESS:          0 HIT:          0 MISS:          0
cpu0_ITLB WRITE        ACCESS:          0 HIT:          0 MISS:          0
cpu0_ITLB TRANSLATION  ACCESS:          0 HIT:          0 MISS:          0
cpu0_ITLB PREFETCH REQUESTED:          0 ISSUED:          0 USEFUL:          0 USELESS:          0
cpu0_ITLB AVERAGE MISS LATENCY: 181.1 cycles
cpu0_L1D TOTAL        ACCESS:    9580284 HIT:    6157860 MISS:    3422424
cpu0_L1D LOAD         ACCESS:    6447637 HIT:    4003351 MISS:    2444286
cpu0_L1D RFO          ACCESS:          0 HIT:          0 MISS:          0
cpu0_L1D PREFETCH     ACCESS:          0 HIT:          0 MISS:          0
cpu0_L1D WRITE        ACCESS:    3124345 HIT:    2153606 MISS:     970739
cpu0_L1D TRANSLATION  ACCESS:       8302 HIT:        903 MISS:       7399
cpu0_L1D PREFETCH REQUESTED:          0 ISSUED:          0 USEFUL:          0 USELESS:          0
cpu0_L1D AVERAGE MISS LATENCY: 149.9 cycles
cpu0_L1I TOTAL        ACCESS:     234288 HIT:     233926 MISS:        362
cpu0_L1I LOAD         ACCESS:     234288 HIT:     233926 MISS:        362
cpu0_L1I RFO          ACCESS:          0 HIT:          0 MISS:          0
cpu0_L1I PREFETCH     ACCESS:          0 HIT:          0 MISS:          0
cpu0_L1I WRITE        ACCESS:          0 HIT:          0 MISS:          0
cpu0_L1I TRANSLATION  ACCESS:          0 HIT:          0 MISS:          0
cpu0_L1I PREFETCH REQUESTED:          0 ISSUED:          0 USEFUL:          0 USELESS:          0
cpu0_L1I AVERAGE MISS LATENCY: 462 cycles
cpu0_L2C TOTAL        ACCESS:    1505553 HIT:     785335 MISS:     720218
cpu0_L2C LOAD         ACCESS:     945285 HIT:     315833 MISS:     629452
cpu0_L2C RFO          ACCESS:     221815 HIT:     132601 MISS:      89214
cpu0_L2C PREFETCH     ACCESS:          0 HIT:          0 MISS:          0
cpu0_L2C WRITE        ACCESS:     331063 HIT:     330328 MISS:        735
cpu0_L2C TRANSLATION  ACCESS:       7390 HIT:       6573 MISS:        817
cpu0_L2C PREFETCH REQUESTED:          0 ISSUED:          0 USEFUL:          0 USELESS:          0
cpu0_L2C AVERAGE MISS LATENCY: 1030 cycles
cpu0_STLB TOTAL        ACCESS:      30924 HIT:      22647 MISS:       8277
cpu0_STLB LOAD         ACCESS:      30924 HIT:      22647 MISS:       8277
cpu0_STLB RFO          ACCESS:          0 HIT:          0 MISS:          0
cpu0_STLB PREFETCH     ACCESS:          0 HIT:          0 MISS:          0
cpu0_STLB WRITE        ACCESS:          0 HIT:          0 MISS:          0
cpu0_STLB TRANSLATION  ACCESS:          0 HIT:          0 MISS:          0
cpu0_STLB PREFETCH REQUESTED:          0 ISSUED:          0 USEFUL:          0 USELESS:          0
cpu0_STLB AVERAGE MISS LATENCY: 409.9 cycles

DRAM Statistics

Channel 0 RQ ROW_BUFFER_HIT:     201517
  ROW_BUFFER_MISS:     307816
 AVG DBUS CONGESTED CYCLE: 3.94
WQ ROW_BUFFER_HIT: Channel 0 
  ROW_BUFFER_MISS:       8824
  FULL:     104774
