WARNING: physical memory size is smaller than virtual memory size.

*** ChampSim Multicore Out-of-Order Simulator ***
Warmup Instructions: 25000000
Simulation Instructions: 25000000
Number of CPUs: 1
Page size: 4096

Off-chip DRAM Size: 4 GiB Channels: 1 Width: 64-bit Data Race: 800 MT/s
Heartbeat CPU 0 instructions: 10000003 cycles: 2526215 heartbeat IPC: 3.958 cumulative IPC: 3.958 (Simulation time: 00 hr 01 min 06 sec)
Heartbeat CPU 0 instructions: 20000002 cycles: 5052146 heartbeat IPC: 3.959 cumulative IPC: 3.959 (Simulation time: 00 hr 02 min 12 sec)
Warmup finished CPU 0 instructions: 25000002 cycles: 6315191 cumulative IPC: 3.959 (Simulation time: 00 hr 02 min 41 sec)
Warmup complete CPU 0 instructions: 25000002 cycles: 6315191 cumulative IPC: 3.959 (Simulation time: 00 hr 02 min 41 sec)
Heartbeat CPU 0 instructions: 30000000 cycles: 13555244 heartbeat IPC: 1.176 cumulative IPC: 0.6906 (Simulation time: 00 hr 04 min 18 sec)
Heartbeat CPU 0 instructions: 40000001 cycles: 31925488 heartbeat IPC: 0.5444 cumulative IPC: 0.5857 (Simulation time: 00 hr 08 min 16 sec)
Heartbeat CPU 0 instructions: 50000003 cycles: 64185630 heartbeat IPC: 0.31 cumulative IPC: 0.432 (Simulation time: 00 hr 14 min 56 sec)
Simulation finished CPU 0 instructions: 25000001 cycles: 57870440 cumulative IPC: 0.432 (Simulation time: 00 hr 14 min 56 sec)
Simulation complete CPU 0 instructions: 25000001 cycles: 57870440 cumulative IPC: 0.432 (Simulation time: 00 hr 14 min 56 sec)

ChampSim completed all CPUs

=== Simulation ===
CPU 0 runs ./traces/leslie3d_1116B.trace.xz
Region of Interest Statistics

CPU 0 cumulative IPC: 0.432 instructions: 25000001 cycles: 57870440
CPU 0 Branch Prediction Accuracy: 98.2% MPKI: 1.067 Average ROB Occupancy at Mispredict: 297.9
Branch type MPKI
BRANCH_DIRECT_JUMP: 0.00032
BRANCH_INDIRECT: 0
BRANCH_CONDITIONAL: 1.06
BRANCH_DIRECT_CALL: 0.00228
BRANCH_INDIRECT_CALL: 0
BRANCH_RETURN: 0.0022

LLC TOTAL        ACCESS:     913761 HIT:     254132 MISS:     659629
LLC LOAD         ACCESS:     405845 HIT:        324 MISS:     405521
LLC RFO          ACCESS:     253611 HIT:         79 MISS:     253532
LLC PREFETCH     ACCESS:          0 HIT:          0 MISS:          0
LLC WRITE        ACCESS:     253267 HIT:     252967 MISS:        300
LLC TRANSLATION  ACCESS:       1038 HIT:        762 MISS:        276
LLC PREFETCH REQUESTED:          0 ISSUED:          0 USEFUL:          0 USELESS:          0
LLC AVERAGE MISS LATENCY: 957.3 cycles
cpu0_DTLB TOTAL        ACCESS:    6115135 HIT:    6037437 MISS:      77698
cpu0_DTLB LOAD         ACCESS:    6115135 HIT:    6037437 MISS:      77698
cpu0_DTLB RFO          ACCESS:          0 HIT:          0 MISS:          0
cpu0_DTLB PREFETCH     ACCESS:          0 HIT:          0 MISS:          0
cpu0_DTLB WRITE        ACCESS:          0 HIT:          0 MISS:          0
cpu0_DTLB TRANSLATION  ACCESS:          0 HIT:          0 MISS:          0
cpu0_DTLB PREFETCH REQUESTED:          0 ISSUED:          0 USEFUL:          0 USELESS:          0
cpu0_DTLB AVERAGE MISS LATENCY: 18.68 cycles
cpu0_ITLB TOTAL        ACCESS:      75531 HIT:      75508 MISS:         23
cpu0_ITLB LOAD         ACCESS:      75531 HIT:      75508 MISS:         23
cpu0_ITLB RFO          ACCESS:          0 HIT:          0 MISS:          0
cpu0_ITLB PREFETCH     ACCESS:          0 HIT:          0 MISS:          0
cpu0_ITLB WRITE        ACCESS:          0 HIT:          0 MISS:          0
cpu0_ITLB TRANSLATION  ACCESS:          0 HIT:          0 MISS:          0
cpu0_ITLB PREFETCH REQUESTED:          0 ISSUED:          0 USEFUL:          0 USELESS:          0
cpu0_ITLB AVERAGE MISS LATENCY: 238.3 cycles
cpu0_L1D TOTAL        ACCESS:    8776155 HIT:    4896493 MISS:    3879662
cpu0_L1D LOAD         ACCESS:    5578722 HIT:    3803729 MISS:    1774993
cpu0_L1D RFO          ACCESS:          0 HIT:          0 MISS:          0
cpu0_L1D PREFETCH     ACCESS:          0 HIT:          0 MISS:          0
cpu0_L1D WRITE        ACCESS:    3187981 HIT:    1085732 MISS:    2102249
cpu0_L1D TRANSLATION  ACCESS:       9452 HIT:       7032 MISS:       2420
cpu0_L1D PREFETCH REQUESTED:          0 ISSUED:          0 USEFUL:          0 USELESS:          0
cpu0_L1D AVERAGE MISS LATENCY: 138.2 cycles
cpu0_L1I TOTAL        ACCESS:      99623 HIT:      99420 MISS:        203
cpu0_L1I LOAD         ACCESS:      99623 HIT:      99420 MISS:        203
cpu0_L1I RFO          ACCESS:          0 HIT:          0 MISS:          0
cpu0_L1I PREFETCH     ACCESS:          0 HIT:          0 MISS:          0
cpu0_L1I WRITE        ACCESS:          0 HIT:          0 MISS:          0
cpu0_L1I TRANSLATION  ACCESS:          0 HIT:          0 MISS:          0
cpu0_L1I PREFETCH REQUESTED:          0 ISSUED:          0 USEFUL:          0 USELESS:          0
cpu0_L1I AVERAGE MISS LATENCY: 290 cycles
cpu0_L2C TOTAL        ACCESS:    1214515 HIT:     553984 MISS:     660531
cpu0_L2C LOAD         ACCESS:     545618 HIT:     139769 MISS:     405849
cpu0_L2C RFO          ACCESS:     312646 HIT:      59033 MISS:     253613
cpu0_L2C PREFETCH     ACCESS:          0 HIT:          0 MISS:          0
cpu0_L2C WRITE        ACCESS:     353831 HIT:     353800 MISS:         31
cpu0_L2C TRANSLATION  ACCESS:       2420 HIT:       1382 MISS:       1038
cpu0_L2C PREFETCH REQUESTED:          0 ISSUED:          0 USEFUL:          0 USELESS:          0
cpu0_L2C AVERAGE MISS LATENCY: 977 cycles
cpu0_STLB TOTAL        ACCESS:      15247 HIT:       5806 MISS:       9441
cpu0_STLB LOAD         ACCESS:      15247 HIT:       5806 MISS:       9441
cpu0_STLB RFO          ACCESS:          0 HIT:          0 MISS:          0
cpu0_STLB PREFETCH     ACCESS:          0 HIT:          0 MISS:          0
cpu0_STLB WRITE        ACCESS:          0 HIT:          0 MISS:          0
cpu0_STLB TRANSLATION  ACCESS:          0 HIT:          0 MISS:          0
cpu0_STLB PREFETCH REQUESTED:          0 ISSUED:          0 USEFUL:          0 USELESS:          0
cpu0_STLB AVERAGE MISS LATENCY: 237.7 cycles

DRAM Statistics

Channel 0 RQ ROW_BUFFER_HIT:     239296
  ROW_BUFFER_MISS:     420025
 AVG DBUS CONGESTED CYCLE: 3.963
WQ ROW_BUFFER_HIT: Channel 0 
  ROW_BUFFER_MISS:      30632
  FULL:     217716
