WARNING: physical memory size is smaller than virtual memory size.

*** ChampSim Multicore Out-of-Order Simulator ***
Warmup Instructions: 25000000
Simulation Instructions: 25000000
Number of CPUs: 1
Page size: 4096

Off-chip DRAM Size: 4 GiB Channels: 1 Width: 64-bit Data Race: 800 MT/s
Heartbeat CPU 0 instructions: 10000001 cycles: 2500074 heartbeat IPC: 4 cumulative IPC: 4 (Simulation time: 00 hr 00 min 43 sec)
Heartbeat CPU 0 instructions: 20000001 cycles: 5000074 heartbeat IPC: 4 cumulative IPC: 4 (Simulation time: 00 hr 01 min 27 sec)
Warmup finished CPU 0 instructions: 25000001 cycles: 6250075 cumulative IPC: 4 (Simulation time: 00 hr 01 min 49 sec)
Warmup complete CPU 0 instructions: 25000001 cycles: 6250075 cumulative IPC: 4 (Simulation time: 00 hr 01 min 49 sec)
Heartbeat CPU 0 instructions: 30000002 cycles: 31733453 heartbeat IPC: 0.3741 cumulative IPC: 0.1962 (Simulation time: 00 hr 06 min 41 sec)
Heartbeat CPU 0 instructions: 40000000 cycles: 72025480 heartbeat IPC: 0.2482 cumulative IPC: 0.228 (Simulation time: 00 hr 14 min 30 sec)
Heartbeat CPU 0 instructions: 50000003 cycles: 83138243 heartbeat IPC: 0.8999 cumulative IPC: 0.3251 (Simulation time: 00 hr 16 min 42 sec)
Simulation finished CPU 0 instructions: 25000002 cycles: 76888169 cumulative IPC: 0.3251 (Simulation time: 00 hr 16 min 42 sec)
Simulation complete CPU 0 instructions: 25000002 cycles: 76888169 cumulative IPC: 0.3251 (Simulation time: 00 hr 16 min 42 sec)

ChampSim completed all CPUs

=== Simulation ===
CPU 0 runs ./traces/libquantum_964B.trace.xz
Region of Interest Statistics

CPU 0 cumulative IPC: 0.3251 instructions: 25000002 cycles: 76888169
CPU 0 Branch Prediction Accuracy: 99.98% MPKI: 0.05316 Average ROB Occupancy at Mispredict: 89.19
Branch type MPKI
BRANCH_DIRECT_JUMP: 4e-05
BRANCH_INDIRECT: 0
BRANCH_CONDITIONAL: 0.0527
BRANCH_DIRECT_CALL: 0.0002
BRANCH_INDIRECT_CALL: 0
BRANCH_RETURN: 0.0002

LLC TOTAL        ACCESS:    1453645 HIT:     526199 MISS:     927446
LLC LOAD         ACCESS:     927401 HIT:          0 MISS:     927401
LLC RFO          ACCESS:          8 HIT:          0 MISS:          8
LLC PREFETCH     ACCESS:          0 HIT:          0 MISS:          0
LLC WRITE        ACCESS:     526199 HIT:     526199 MISS:          0
LLC TRANSLATION  ACCESS:         37 HIT:          0 MISS:         37
LLC PREFETCH REQUESTED:          0 ISSUED:          0 USEFUL:          0 USELESS:          0
LLC AVERAGE MISS LATENCY: 973.7 cycles
cpu0_DTLB TOTAL        ACCESS:    4396536 HIT:    4337991 MISS:      58545
cpu0_DTLB LOAD         ACCESS:    4396536 HIT:    4337991 MISS:      58545
cpu0_DTLB RFO          ACCESS:          0 HIT:          0 MISS:          0
cpu0_DTLB PREFETCH     ACCESS:          0 HIT:          0 MISS:          0
cpu0_DTLB WRITE        ACCESS:          0 HIT:          0 MISS:          0
cpu0_DTLB TRANSLATION  ACCESS:          0 HIT:          0 MISS:          0
cpu0_DTLB PREFETCH REQUESTED:          0 ISSUED:          0 USEFUL:          0 USELESS:          0
cpu0_DTLB AVERAGE MISS LATENCY: 3.109 cycles
cpu0_ITLB TOTAL        ACCESS:          8 HIT:          7 MISS:          1
cpu0_ITLB LOAD         ACCESS:          8 HIT:          7 MISS:          1
cpu0_ITLB RFO          ACCESS:          0 HIT:          0 MISS:          0
cpu0_ITLB PREFETCH     ACCESS:          0 HIT:          0 MISS:          0
cpu0_ITLB WRITE        ACCESS:          0 HIT:          0 MISS:          0
cpu0_ITLB TRANSLATION  ACCESS:          0 HIT:          0 MISS:          0
cpu0_ITLB PREFETCH REQUESTED:          0 ISSUED:          0 USEFUL:          0 USELESS:          0
cpu0_ITLB AVERAGE MISS LATENCY: 457 cycles
cpu0_L1D TOTAL        ACCESS:    5630067 HIT:    2116352 MISS:    3513715
cpu0_L1D LOAD         ACCESS:    3517055 HIT:       3406 MISS:    3513649
cpu0_L1D RFO          ACCESS:          0 HIT:          0 MISS:          0
cpu0_L1D PREFETCH     ACCESS:          0 HIT:          0 MISS:          0
cpu0_L1D WRITE        ACCESS:    2098512 HIT:    2098483 MISS:         29
cpu0_L1D TRANSLATION  ACCESS:      14500 HIT:      14463 MISS:         37
cpu0_L1D PREFETCH REQUESTED:          0 ISSUED:          0 USEFUL:          0 USELESS:          0
cpu0_L1D AVERAGE MISS LATENCY: 257.2 cycles
cpu0_L1I TOTAL        ACCESS:          8 HIT:          5 MISS:          3
cpu0_L1I LOAD         ACCESS:          8 HIT:          5 MISS:          3
cpu0_L1I RFO          ACCESS:          0 HIT:          0 MISS:          0
cpu0_L1I PREFETCH     ACCESS:          0 HIT:          0 MISS:          0
cpu0_L1I WRITE        ACCESS:          0 HIT:          0 MISS:          0
cpu0_L1I TRANSLATION  ACCESS:          0 HIT:          0 MISS:          0
cpu0_L1I PREFETCH REQUESTED:          0 ISSUED:          0 USEFUL:          0 USELESS:          0
cpu0_L1I AVERAGE MISS LATENCY: 347.3 cycles
cpu0_L2C TOTAL        ACCESS:    1453117 HIT:     525671 MISS:     927446
cpu0_L2C LOAD         ACCESS:     927401 HIT:          0 MISS:     927401
cpu0_L2C RFO          ACCESS:          8 HIT:          0 MISS:          8
cpu0_L2C PREFETCH     ACCESS:          0 HIT:          0 MISS:          0
cpu0_L2C WRITE        ACCESS:     525671 HIT:     525671 MISS:          0
cpu0_L2C TRANSLATION  ACCESS:         37 HIT:          0 MISS:         37
cpu0_L2C PREFETCH REQUESTED:          0 ISSUED:          0 USEFUL:          0 USELESS:          0
cpu0_L2C AVERAGE MISS LATENCY: 994.7 cycles
cpu0_STLB TOTAL        ACCESS:      14500 HIT:          0 MISS:      14500
cpu0_STLB LOAD         ACCESS:      14500 HIT:          0 MISS:      14500
cpu0_STLB RFO          ACCESS:          0 HIT:          0 MISS:          0
cpu0_STLB PREFETCH     ACCESS:          0 HIT:          0 MISS:          0
cpu0_STLB WRITE        ACCESS:          0 HIT:          0 MISS:          0
cpu0_STLB TRANSLATION  ACCESS:          0 HIT:          0 MISS:          0
cpu0_STLB PREFETCH REQUESTED:          0 ISSUED:          0 USEFUL:          0 USELESS:          0
cpu0_STLB AVERAGE MISS LATENCY: 11.35 cycles

DRAM Statistics

Channel 0 RQ ROW_BUFFER_HIT:     508811
  ROW_BUFFER_MISS:     418627
 AVG DBUS CONGESTED CYCLE: 3.964
WQ ROW_BUFFER_HIT: Channel 0 
  ROW_BUFFER_MISS:     188375
  FULL:     341883
