WARNING: physical memory size is smaller than virtual memory size.

*** ChampSim Multicore Out-of-Order Simulator ***
Warmup Instructions: 25000000
Simulation Instructions: 25000000
Number of CPUs: 1
Page size: 4096

Off-chip DRAM Size: 4 GiB Channels: 1 Width: 64-bit Data Race: 800 MT/s
Heartbeat CPU 0 instructions: 10000002 cycles: 2521876 heartbeat IPC: 3.965 cumulative IPC: 3.965 (Simulation time: 00 hr 01 min 14 sec)
Heartbeat CPU 0 instructions: 20000003 cycles: 5043667 heartbeat IPC: 3.965 cumulative IPC: 3.965 (Simulation time: 00 hr 02 min 36 sec)
Warmup finished CPU 0 instructions: 25000000 cycles: 6308992 cumulative IPC: 3.963 (Simulation time: 00 hr 03 min 18 sec)
Warmup complete CPU 0 instructions: 25000000 cycles: 6308992 cumulative IPC: 3.963 (Simulation time: 00 hr 03 min 18 sec)
Heartbeat CPU 0 instructions: 30000003 cycles: 73164544 heartbeat IPC: 0.1468 cumulative IPC: 0.07479 (Simulation time: 00 hr 11 min 41 sec)
Heartbeat CPU 0 instructions: 40000000 cycles: 222258351 heartbeat IPC: 0.06707 cumulative IPC: 0.06946 (Simulation time: 00 hr 28 min 35 sec)
Heartbeat CPU 0 instructions: 50000000 cycles: 363224849 heartbeat IPC: 0.07094 cumulative IPC: 0.07004 (Simulation time: 00 hr 37 min 03 sec)
Simulation finished CPU 0 instructions: 25000000 cycles: 356915858 cumulative IPC: 0.07004 (Simulation time: 00 hr 37 min 03 sec)
Simulation complete CPU 0 instructions: 25000000 cycles: 356915858 cumulative IPC: 0.07004 (Simulation time: 00 hr 37 min 03 sec)

ChampSim completed all CPUs

=== Simulation ===
CPU 0 runs ./traces/mcf_158B.trace.xz
Region of Interest Statistics

CPU 0 cumulative IPC: 0.07004 instructions: 25000000 cycles: 356915858
CPU 0 Branch Prediction Accuracy: 82.21% MPKI: 49.39 Average ROB Occupancy at Mispredict: 13.14
Branch type MPKI
BRANCH_DIRECT_JUMP: 1.13
BRANCH_INDIRECT: 0
BRANCH_CONDITIONAL: 48.3
BRANCH_DIRECT_CALL: 0
BRANCH_INDIRECT_CALL: 0
BRANCH_RETURN: 0

LLC TOTAL        ACCESS:    3339931 HIT:    1262253 MISS:    2077678
LLC LOAD         ACCESS:    2587322 HIT:     781729 MISS:    1805593
LLC RFO          ACCESS:      41620 HIT:      14341 MISS:      27279
LLC PREFETCH     ACCESS:          0 HIT:          0 MISS:          0
LLC WRITE        ACCESS:     425400 HIT:     417920 MISS:       7480
LLC TRANSLATION  ACCESS:     285589 HIT:      48263 MISS:     237326
LLC PREFETCH REQUESTED:          0 ISSUED:          0 USEFUL:          0 USELESS:          0
LLC AVERAGE MISS LATENCY: 426.5 cycles
cpu0_DTLB TOTAL        ACCESS:    7723498 HIT:    4078097 MISS:    3645401
cpu0_DTLB LOAD         ACCESS:    7723498 HIT:    4078097 MISS:    3645401
cpu0_DTLB RFO          ACCESS:          0 HIT:          0 MISS:          0
cpu0_DTLB PREFETCH     ACCESS:          0 HIT:          0 MISS:          0
cpu0_DTLB WRITE        ACCESS:          0 HIT:          0 MISS:          0
cpu0_DTLB TRANSLATION  ACCESS:          0 HIT:          0 MISS:          0
cpu0_DTLB PREFETCH REQUESTED:          0 ISSUED:          0 USEFUL:          0 USELESS:          0
cpu0_DTLB AVERAGE MISS LATENCY: 38.43 cycles
cpu0_ITLB TOTAL        ACCESS:          0 HIT:          0 MISS:          0
cpu0_ITLB LOAD         ACCESS:          0 HIT:          0 MISS:          0
cpu0_ITLB RFO          ACCESS:          0 HIT:          0 MISS:          0
cpu0_ITLB PREFETCH     ACCESS:          0 HIT:          0 MISS:          0
cpu0_ITLB WRITE        ACCESS:          0 HIT:          0 MISS:          0
cpu0_ITLB TRANSLATION  ACCESS:          0 HIT:          0 MISS:          0
cpu0_ITLB PREFETCH REQUESTED:          0 ISSUED:          0 USEFUL:          0 USELESS:          0
cpu0_ITLB AVERAGE MISS LATENCY: -nan cycles
cpu0_L1D TOTAL        ACCESS:    9067832 HIT:    3825126 MISS:    5242706
cpu0_L1D LOAD         ACCESS:    7502362 HIT:    2702235 MISS:    4800127
cpu0_L1D RFO          ACCESS:          0 HIT:          0 MISS:          0
cpu0_L1D PREFETCH     ACCESS:          0 HIT:          0 MISS:          0
cpu0_L1D WRITE        ACCESS:    1160693 HIT:    1082860 MISS:      77833
cpu0_L1D TRANSLATION  ACCESS:     404777 HIT:      40031 MISS:     364746
cpu0_L1D PREFETCH REQUESTED:          0 ISSUED:          0 USEFUL:          0 USELESS:          0
cpu0_L1D AVERAGE MISS LATENCY: 188 cycles
cpu0_L1I TOTAL        ACCESS:          0 HIT:          0 MISS:          0
cpu0_L1I LOAD         ACCESS:          0 HIT:          0 MISS:          0
cpu0_L1I RFO          ACCESS:          0 HIT:          0 MISS:          0
cpu0_L1I PREFETCH     ACCESS:          0 HIT:          0 MISS:          0
cpu0_L1I WRITE        ACCESS:          0 HIT:          0 MISS:          0
cpu0_L1I TRANSLATION  ACCESS:          0 HIT:          0 MISS:          0
cpu0_L1I PREFETCH REQUESTED:          0 ISSUED:          0 USEFUL:          0 USELESS:          0
cpu0_L1I AVERAGE MISS LATENCY: -nan cycles
cpu0_L2C TOTAL        ACCESS:    4370996 HIT:    1456443 MISS:    2914553
cpu0_L2C LOAD         ACCESS:    3371366 HIT:     784045 MISS:    2587321
cpu0_L2C RFO          ACCESS:      61903 HIT:      20283 MISS:      41620
cpu0_L2C PREFETCH     ACCESS:          0 HIT:          0 MISS:          0
cpu0_L2C WRITE        ACCESS:     573230 HIT:     573207 MISS:         23
cpu0_L2C TRANSLATION  ACCESS:     364497 HIT:      78908 MISS:     285589
cpu0_L2C PREFETCH REQUESTED:          0 ISSUED:          0 USEFUL:          0 USELESS:          0
cpu0_L2C AVERAGE MISS LATENCY: 324.8 cycles
cpu0_STLB TOTAL        ACCESS:    2614867 HIT:    2321716 MISS:     293151
cpu0_STLB LOAD         ACCESS:    2614867 HIT:    2321716 MISS:     293151
cpu0_STLB RFO          ACCESS:          0 HIT:          0 MISS:          0
cpu0_STLB PREFETCH     ACCESS:          0 HIT:          0 MISS:          0
cpu0_STLB WRITE        ACCESS:          0 HIT:          0 MISS:          0
cpu0_STLB TRANSLATION  ACCESS:          0 HIT:          0 MISS:          0
cpu0_STLB PREFETCH REQUESTED:          0 ISSUED:          0 USEFUL:          0 USELESS:          0
cpu0_STLB AVERAGE MISS LATENCY: 413.8 cycles

DRAM Statistics

Channel 0 RQ ROW_BUFFER_HIT:      51371
  ROW_BUFFER_MISS:    2018552
 AVG DBUS CONGESTED CYCLE: 3.941
WQ ROW_BUFFER_HIT: Channel 0 
  ROW_BUFFER_MISS:      10503
  FULL:     357450
