WARNING: physical memory size is smaller than virtual memory size.

*** ChampSim Multicore Out-of-Order Simulator ***
Warmup Instructions: 25000000
Simulation Instructions: 25000000
Number of CPUs: 1
Page size: 4096

Off-chip DRAM Size: 4 GiB Channels: 1 Width: 64-bit Data Race: 800 MT/s
Heartbeat CPU 0 instructions: 10000001 cycles: 2514122 heartbeat IPC: 3.978 cumulative IPC: 3.978 (Simulation time: 00 hr 01 min 16 sec)
Heartbeat CPU 0 instructions: 20000000 cycles: 5020434 heartbeat IPC: 3.99 cumulative IPC: 3.984 (Simulation time: 00 hr 02 min 31 sec)
Warmup finished CPU 0 instructions: 25000001 cycles: 6270575 cumulative IPC: 3.987 (Simulation time: 00 hr 03 min 10 sec)
Warmup complete CPU 0 instructions: 25000001 cycles: 6270575 cumulative IPC: 3.987 (Simulation time: 00 hr 03 min 10 sec)
Heartbeat CPU 0 instructions: 30000000 cycles: 88798514 heartbeat IPC: 0.1194 cumulative IPC: 0.06059 (Simulation time: 00 hr 13 min 33 sec)
Heartbeat CPU 0 instructions: 40000003 cycles: 259457620 heartbeat IPC: 0.0586 cumulative IPC: 0.05924 (Simulation time: 00 hr 30 min 57 sec)
Heartbeat CPU 0 instructions: 50000002 cycles: 421379908 heartbeat IPC: 0.06176 cumulative IPC: 0.06023 (Simulation time: 00 hr 40 min 10 sec)
Simulation finished CPU 0 instructions: 25000001 cycles: 415109334 cumulative IPC: 0.06023 (Simulation time: 00 hr 40 min 10 sec)
Simulation complete CPU 0 instructions: 25000001 cycles: 415109334 cumulative IPC: 0.06023 (Simulation time: 00 hr 40 min 10 sec)

ChampSim completed all CPUs

=== Simulation ===
CPU 0 runs ./traces/mcf_250B.trace.xz
Region of Interest Statistics

CPU 0 cumulative IPC: 0.06023 instructions: 25000001 cycles: 415109334
CPU 0 Branch Prediction Accuracy: 90.47% MPKI: 29.3 Average ROB Occupancy at Mispredict: 18.36
Branch type MPKI
BRANCH_DIRECT_JUMP: 0.0611
BRANCH_INDIRECT: 0
BRANCH_CONDITIONAL: 29.2
BRANCH_DIRECT_CALL: 0
BRANCH_INDIRECT_CALL: 0
BRANCH_RETURN: 0

LLC TOTAL        ACCESS:    3834623 HIT:    1709500 MISS:    2125123
LLC LOAD         ACCESS:    3659077 HIT:    1604551 MISS:    2054526
LLC RFO          ACCESS:       5843 HIT:       2097 MISS:       3746
LLC PREFETCH     ACCESS:          0 HIT:          0 MISS:          0
LLC WRITE        ACCESS:      59534 HIT:      58810 MISS:        724
LLC TRANSLATION  ACCESS:     110169 HIT:      44042 MISS:      66127
LLC PREFETCH REQUESTED:          0 ISSUED:          0 USEFUL:          0 USELESS:          0
LLC AVERAGE MISS LATENCY: 634.2 cycles
cpu0_DTLB TOTAL        ACCESS:    6888450 HIT:     586306 MISS:    6302144
cpu0_DTLB LOAD         ACCESS:    6888450 HIT:     586306 MISS:    6302144
cpu0_DTLB RFO          ACCESS:          0 HIT:          0 MISS:          0
cpu0_DTLB PREFETCH     ACCESS:          0 HIT:          0 MISS:          0
cpu0_DTLB WRITE        ACCESS:          0 HIT:          0 MISS:          0
cpu0_DTLB TRANSLATION  ACCESS:          0 HIT:          0 MISS:          0
cpu0_DTLB PREFETCH REQUESTED:          0 ISSUED:          0 USEFUL:          0 USELESS:          0
cpu0_DTLB AVERAGE MISS LATENCY: 14.2 cycles
cpu0_ITLB TOTAL        ACCESS:          0 HIT:          0 MISS:          0
cpu0_ITLB LOAD         ACCESS:          0 HIT:          0 MISS:          0
cpu0_ITLB RFO          ACCESS:          0 HIT:          0 MISS:          0
cpu0_ITLB PREFETCH     ACCESS:          0 HIT:          0 MISS:          0
cpu0_ITLB WRITE        ACCESS:          0 HIT:          0 MISS:          0
cpu0_ITLB TRANSLATION  ACCESS:          0 HIT:          0 MISS:          0
cpu0_ITLB PREFETCH REQUESTED:          0 ISSUED:          0 USEFUL:          0 USELESS:          0
cpu0_ITLB AVERAGE MISS LATENCY: -nan cycles
cpu0_L1D TOTAL        ACCESS:    7561075 HIT:     487123 MISS:    7073952
cpu0_L1D LOAD         ACCESS:    7335067 HIT:     394522 MISS:    6940545
cpu0_L1D RFO          ACCESS:          0 HIT:          0 MISS:          0
cpu0_L1D PREFETCH     ACCESS:          0 HIT:          0 MISS:          0
cpu0_L1D WRITE        ACCESS:      95383 HIT:      87520 MISS:       7863
cpu0_L1D TRANSLATION  ACCESS:     130625 HIT:       5081 MISS:     125544
cpu0_L1D PREFETCH REQUESTED:          0 ISSUED:          0 USEFUL:          0 USELESS:          0
cpu0_L1D AVERAGE MISS LATENCY: 208.8 cycles
cpu0_L1I TOTAL        ACCESS:          0 HIT:          0 MISS:          0
cpu0_L1I LOAD         ACCESS:          0 HIT:          0 MISS:          0
cpu0_L1I RFO          ACCESS:          0 HIT:          0 MISS:          0
cpu0_L1I PREFETCH     ACCESS:          0 HIT:          0 MISS:          0
cpu0_L1I WRITE        ACCESS:          0 HIT:          0 MISS:          0
cpu0_L1I TRANSLATION  ACCESS:          0 HIT:          0 MISS:          0
cpu0_L1I PREFETCH REQUESTED:          0 ISSUED:          0 USEFUL:          0 USELESS:          0
cpu0_L1I AVERAGE MISS LATENCY: -nan cycles
cpu0_L2C TOTAL        ACCESS:    4956787 HIT:    1181698 MISS:    3775089
cpu0_L2C LOAD         ACCESS:    4762953 HIT:    1103876 MISS:    3659077
cpu0_L2C RFO          ACCESS:       7004 HIT:       1161 MISS:       5843
cpu0_L2C PREFETCH     ACCESS:          0 HIT:          0 MISS:          0
cpu0_L2C WRITE        ACCESS:      61416 HIT:      61416 MISS:          0
cpu0_L2C TRANSLATION  ACCESS:     125414 HIT:      15245 MISS:     110169
cpu0_L2C PREFETCH REQUESTED:          0 ISSUED:          0 USEFUL:          0 USELESS:          0
cpu0_L2C AVERAGE MISS LATENCY: 377.5 cycles
cpu0_STLB TOTAL        ACCESS:    4586335 HIT:    4491876 MISS:      94459
cpu0_STLB LOAD         ACCESS:    4586335 HIT:    4491876 MISS:      94459
cpu0_STLB RFO          ACCESS:          0 HIT:          0 MISS:          0
cpu0_STLB PREFETCH     ACCESS:          0 HIT:          0 MISS:          0
cpu0_STLB WRITE        ACCESS:          0 HIT:          0 MISS:          0
cpu0_STLB TRANSLATION  ACCESS:          0 HIT:          0 MISS:          0
cpu0_STLB PREFETCH REQUESTED:          0 ISSUED:          0 USEFUL:          0 USELESS:          0
cpu0_STLB AVERAGE MISS LATENCY: 595.8 cycles

DRAM Statistics

Channel 0 RQ ROW_BUFFER_HIT:      18825
  ROW_BUFFER_MISS:    2105483
 AVG DBUS CONGESTED CYCLE: 3.972
WQ ROW_BUFFER_HIT: Channel 0 
  ROW_BUFFER_MISS:       4246
  FULL:      49690
