WARNING: physical memory size is smaller than virtual memory size.

*** ChampSim Multicore Out-of-Order Simulator ***
Warmup Instructions: 25000000
Simulation Instructions: 25000000
Number of CPUs: 1
Page size: 4096

Off-chip DRAM Size: 4 GiB Channels: 1 Width: 64-bit Data Race: 800 MT/s
Heartbeat CPU 0 instructions: 10000003 cycles: 2563767 heartbeat IPC: 3.901 cumulative IPC: 3.901 (Simulation time: 00 hr 01 min 17 sec)
Heartbeat CPU 0 instructions: 20000002 cycles: 5097015 heartbeat IPC: 3.948 cumulative IPC: 3.924 (Simulation time: 00 hr 02 min 43 sec)
Warmup finished CPU 0 instructions: 25000002 cycles: 6371585 cumulative IPC: 3.924 (Simulation time: 00 hr 03 min 26 sec)
Warmup complete CPU 0 instructions: 25000002 cycles: 6371585 cumulative IPC: 3.924 (Simulation time: 00 hr 03 min 26 sec)
Heartbeat CPU 0 instructions: 30000000 cycles: 65391925 heartbeat IPC: 0.1659 cumulative IPC: 0.08472 (Simulation time: 00 hr 11 min 13 sec)
Heartbeat CPU 0 instructions: 40000001 cycles: 196170220 heartbeat IPC: 0.07647 cumulative IPC: 0.07903 (Simulation time: 00 hr 26 min 35 sec)
Heartbeat CPU 0 instructions: 50000001 cycles: 324107580 heartbeat IPC: 0.07816 cumulative IPC: 0.07868 (Simulation time: 00 hr 34 min 48 sec)
Simulation finished CPU 0 instructions: 25000000 cycles: 317735997 cumulative IPC: 0.07868 (Simulation time: 00 hr 34 min 48 sec)
Simulation complete CPU 0 instructions: 25000000 cycles: 317735997 cumulative IPC: 0.07868 (Simulation time: 00 hr 34 min 48 sec)

ChampSim completed all CPUs

=== Simulation ===
CPU 0 runs ./traces/mcf_46B.trace.xz
Region of Interest Statistics

CPU 0 cumulative IPC: 0.07868 instructions: 25000000 cycles: 317735997
CPU 0 Branch Prediction Accuracy: 81.68% MPKI: 49.4 Average ROB Occupancy at Mispredict: 14.4
Branch type MPKI
BRANCH_DIRECT_JUMP: 0.752
BRANCH_INDIRECT: 0
BRANCH_CONDITIONAL: 48.6
BRANCH_DIRECT_CALL: 0
BRANCH_INDIRECT_CALL: 0
BRANCH_RETURN: 0

LLC TOTAL        ACCESS:    2994615 HIT:    1110451 MISS:    1884164
LLC LOAD         ACCESS:    2202373 HIT:     598211 MISS:    1604162
LLC RFO          ACCESS:      48843 HIT:      16994 MISS:      31849
LLC PREFETCH     ACCESS:          0 HIT:          0 MISS:          0
LLC WRITE        ACCESS:     460184 HIT:     443568 MISS:      16616
LLC TRANSLATION  ACCESS:     283215 HIT:      51678 MISS:     231537
LLC PREFETCH REQUESTED:          0 ISSUED:          0 USEFUL:          0 USELESS:          0
LLC AVERAGE MISS LATENCY: 655.4 cycles
cpu0_DTLB TOTAL        ACCESS:    7333914 HIT:    4620120 MISS:    2713794
cpu0_DTLB LOAD         ACCESS:    7333914 HIT:    4620120 MISS:    2713794
cpu0_DTLB RFO          ACCESS:          0 HIT:          0 MISS:          0
cpu0_DTLB PREFETCH     ACCESS:          0 HIT:          0 MISS:          0
cpu0_DTLB WRITE        ACCESS:          0 HIT:          0 MISS:          0
cpu0_DTLB TRANSLATION  ACCESS:          0 HIT:          0 MISS:          0
cpu0_DTLB PREFETCH REQUESTED:          0 ISSUED:          0 USEFUL:          0 USELESS:          0
cpu0_DTLB AVERAGE MISS LATENCY: 51.59 cycles
cpu0_ITLB TOTAL        ACCESS:         17 HIT:         17 MISS:          0
cpu0_ITLB LOAD         ACCESS:         17 HIT:         17 MISS:          0
cpu0_ITLB RFO          ACCESS:          0 HIT:          0 MISS:          0
cpu0_ITLB PREFETCH     ACCESS:          0 HIT:          0 MISS:          0
cpu0_ITLB WRITE        ACCESS:          0 HIT:          0 MISS:          0
cpu0_ITLB TRANSLATION  ACCESS:          0 HIT:          0 MISS:          0
cpu0_ITLB PREFETCH REQUESTED:          0 ISSUED:          0 USEFUL:          0 USELESS:          0
cpu0_ITLB AVERAGE MISS LATENCY: -nan cycles
cpu0_L1D TOTAL        ACCESS:    8665314 HIT:    4585501 MISS:    4079813
cpu0_L1D LOAD         ACCESS:    6929823 HIT:    3380262 MISS:    3549561
cpu0_L1D RFO          ACCESS:          0 HIT:          0 MISS:          0
cpu0_L1D PREFETCH     ACCESS:          0 HIT:          0 MISS:          0
cpu0_L1D WRITE        ACCESS:    1316302 HIT:    1163712 MISS:     152590
cpu0_L1D TRANSLATION  ACCESS:     419189 HIT:      41527 MISS:     377662
cpu0_L1D PREFETCH REQUESTED:          0 ISSUED:          0 USEFUL:          0 USELESS:          0
cpu0_L1D AVERAGE MISS LATENCY: 324.2 cycles
cpu0_L1I TOTAL        ACCESS:         17 HIT:         17 MISS:          0
cpu0_L1I LOAD         ACCESS:         17 HIT:         17 MISS:          0
cpu0_L1I RFO          ACCESS:          0 HIT:          0 MISS:          0
cpu0_L1I PREFETCH     ACCESS:          0 HIT:          0 MISS:          0
cpu0_L1I WRITE        ACCESS:          0 HIT:          0 MISS:          0
cpu0_L1I TRANSLATION  ACCESS:          0 HIT:          0 MISS:          0
cpu0_L1I PREFETCH REQUESTED:          0 ISSUED:          0 USEFUL:          0 USELESS:          0
cpu0_L1I AVERAGE MISS LATENCY: -nan cycles
cpu0_L2C TOTAL        ACCESS:    4049955 HIT:    1515484 MISS:    2534471
cpu0_L2C LOAD         ACCESS:    2926737 HIT:     724364 MISS:    2202373
cpu0_L2C RFO          ACCESS:      95006 HIT:      46163 MISS:      48843
cpu0_L2C PREFETCH     ACCESS:          0 HIT:          0 MISS:          0
cpu0_L2C WRITE        ACCESS:     650738 HIT:     650698 MISS:         40
cpu0_L2C TRANSLATION  ACCESS:     377474 HIT:      94259 MISS:     283215
cpu0_L2C PREFETCH REQUESTED:          0 ISSUED:          0 USEFUL:          0 USELESS:          0
cpu0_L2C AVERAGE MISS LATENCY: 508 cycles
cpu0_STLB TOTAL        ACCESS:    2314571 HIT:    1993715 MISS:     320856
cpu0_STLB LOAD         ACCESS:    2314571 HIT:    1993715 MISS:     320856
cpu0_STLB RFO          ACCESS:          0 HIT:          0 MISS:          0
cpu0_STLB PREFETCH     ACCESS:          0 HIT:          0 MISS:          0
cpu0_STLB WRITE        ACCESS:          0 HIT:          0 MISS:          0
cpu0_STLB TRANSLATION  ACCESS:          0 HIT:          0 MISS:          0
cpu0_STLB PREFETCH REQUESTED:          0 ISSUED:          0 USEFUL:          0 USELESS:          0
cpu0_STLB AVERAGE MISS LATENCY: 381.3 cycles

DRAM Statistics

Channel 0 RQ ROW_BUFFER_HIT:      36912
  ROW_BUFFER_MISS:    1830381
 AVG DBUS CONGESTED CYCLE: 3.927
WQ ROW_BUFFER_HIT: Channel 0 
  ROW_BUFFER_MISS:       8966
  FULL:     389397
