WARNING: physical memory size is smaller than virtual memory size.

*** ChampSim Multicore Out-of-Order Simulator ***
Warmup Instructions: 25000000
Simulation Instructions: 25000000
Number of CPUs: 1
Page size: 4096

Off-chip DRAM Size: 4 GiB Channels: 1 Width: 64-bit Data Race: 800 MT/s
Heartbeat CPU 0 instructions: 10000002 cycles: 2514890 heartbeat IPC: 3.976 cumulative IPC: 3.976 (Simulation time: 00 hr 00 min 50 sec)
Heartbeat CPU 0 instructions: 20000002 cycles: 5021365 heartbeat IPC: 3.99 cumulative IPC: 3.983 (Simulation time: 00 hr 01 min 40 sec)
Warmup finished CPU 0 instructions: 25000001 cycles: 6271505 cumulative IPC: 3.986 (Simulation time: 00 hr 02 min 05 sec)
Warmup complete CPU 0 instructions: 25000001 cycles: 6271505 cumulative IPC: 3.986 (Simulation time: 00 hr 02 min 05 sec)
Heartbeat CPU 0 instructions: 30000000 cycles: 78028664 heartbeat IPC: 0.137 cumulative IPC: 0.06968 (Simulation time: 00 hr 09 min 27 sec)
Heartbeat CPU 0 instructions: 40000003 cycles: 228847693 heartbeat IPC: 0.0663 cumulative IPC: 0.06739 (Simulation time: 00 hr 19 min 07 sec)
Heartbeat CPU 0 instructions: 50000002 cycles: 369662923 heartbeat IPC: 0.07102 cumulative IPC: 0.0688 (Simulation time: 00 hr 24 min 09 sec)
Simulation finished CPU 0 instructions: 25000001 cycles: 363391419 cumulative IPC: 0.0688 (Simulation time: 00 hr 24 min 09 sec)
Simulation complete CPU 0 instructions: 25000001 cycles: 363391419 cumulative IPC: 0.0688 (Simulation time: 00 hr 24 min 09 sec)

ChampSim completed all CPUs

=== Simulation ===
CPU 0 runs ./traces/mcf_250B.trace.xz
Region of Interest Statistics

CPU 0 cumulative IPC: 0.0688 instructions: 25000001 cycles: 363391419
CPU 0 Branch Prediction Accuracy: 90.47% MPKI: 29.3 Average ROB Occupancy at Mispredict: 18.93
Branch type MPKI
BRANCH_DIRECT_JUMP: 0.0611
BRANCH_INDIRECT: 0
BRANCH_CONDITIONAL: 29.2
BRANCH_DIRECT_CALL: 0
BRANCH_INDIRECT_CALL: 0
BRANCH_RETURN: 0

LLC TOTAL        ACCESS:    6456015 HIT:    3447031 MISS:    3008984
LLC LOAD         ACCESS:    3170865 HIT:    2155216 MISS:    1015649
LLC RFO          ACCESS:       6046 HIT:       1930 MISS:       4116
LLC PREFETCH     ACCESS:    3104194 HIT:    1185640 MISS:    1918554
LLC WRITE        ACCESS:      60132 HIT:      59809 MISS:        323
LLC TRANSLATION  ACCESS:     114778 HIT:      44436 MISS:      70342
LLC PREFETCH REQUESTED:          0 ISSUED:          0 USEFUL:          0 USELESS:          0
LLC AVERAGE MISS LATENCY: 817.2 cycles
cpu0_DTLB TOTAL        ACCESS:    6884232 HIT:     581263 MISS:    6302969
cpu0_DTLB LOAD         ACCESS:    6884232 HIT:     581263 MISS:    6302969
cpu0_DTLB RFO          ACCESS:          0 HIT:          0 MISS:          0
cpu0_DTLB PREFETCH     ACCESS:          0 HIT:          0 MISS:          0
cpu0_DTLB WRITE        ACCESS:          0 HIT:          0 MISS:          0
cpu0_DTLB TRANSLATION  ACCESS:          0 HIT:          0 MISS:          0
cpu0_DTLB PREFETCH REQUESTED:          0 ISSUED:          0 USEFUL:          0 USELESS:          0
cpu0_DTLB AVERAGE MISS LATENCY: 15.14 cycles
cpu0_ITLB TOTAL        ACCESS:          0 HIT:          0 MISS:          0
cpu0_ITLB LOAD         ACCESS:          0 HIT:          0 MISS:          0
cpu0_ITLB RFO          ACCESS:          0 HIT:          0 MISS:          0
cpu0_ITLB PREFETCH     ACCESS:          0 HIT:          0 MISS:          0
cpu0_ITLB WRITE        ACCESS:          0 HIT:          0 MISS:          0
cpu0_ITLB TRANSLATION  ACCESS:          0 HIT:          0 MISS:          0
cpu0_ITLB PREFETCH REQUESTED:          0 ISSUED:          0 USEFUL:          0 USELESS:          0
cpu0_ITLB AVERAGE MISS LATENCY: -nan cycles
cpu0_L1D TOTAL        ACCESS:   14154508 HIT:     591969 MISS:   13562539
cpu0_L1D LOAD         ACCESS:    7329589 HIT:     298502 MISS:    7031087
cpu0_L1D RFO          ACCESS:          0 HIT:          0 MISS:          0
cpu0_L1D PREFETCH     ACCESS:    6599177 HIT:     202859 MISS:    6396318
cpu0_L1D WRITE        ACCESS:      95106 HIT:      87082 MISS:       8024
cpu0_L1D TRANSLATION  ACCESS:     130636 HIT:       3526 MISS:     127110
cpu0_L1D PREFETCH REQUESTED:   13932883 ISSUED:    6599169 USEFUL:      36830 USELESS:    3729190
cpu0_L1D AVERAGE MISS LATENCY: 197.3 cycles
cpu0_L1I TOTAL        ACCESS:          0 HIT:          0 MISS:          0
cpu0_L1I LOAD         ACCESS:          0 HIT:          0 MISS:          0
cpu0_L1I RFO          ACCESS:          0 HIT:          0 MISS:          0
cpu0_L1I PREFETCH     ACCESS:          0 HIT:          0 MISS:          0
cpu0_L1I WRITE        ACCESS:          0 HIT:          0 MISS:          0
cpu0_L1I TRANSLATION  ACCESS:          0 HIT:          0 MISS:          0
cpu0_L1I PREFETCH REQUESTED:          0 ISSUED:          0 USEFUL:          0 USELESS:          0
cpu0_L1I AVERAGE MISS LATENCY: -nan cycles
cpu0_L2C TOTAL        ACCESS:    8799189 HIT:    2403271 MISS:    6395918
cpu0_L2C LOAD         ACCESS:    4836410 HIT:    1665534 MISS:    3170876
cpu0_L2C RFO          ACCESS:       7083 HIT:       1037 MISS:       6046
cpu0_L2C PREFETCH     ACCESS:    3767125 HIT:     662908 MISS:    3104217
cpu0_L2C WRITE        ACCESS:      61584 HIT:      61583 MISS:          1
cpu0_L2C TRANSLATION  ACCESS:     126987 HIT:      12209 MISS:     114778
cpu0_L2C PREFETCH REQUESTED:        944 ISSUED:        944 USEFUL:        223 USELESS:        507
cpu0_L2C AVERAGE MISS LATENCY: 404.9 cycles
cpu0_STLB TOTAL        ACCESS:    4586255 HIT:    4491793 MISS:      94462
cpu0_STLB LOAD         ACCESS:    4586255 HIT:    4491793 MISS:      94462
cpu0_STLB RFO          ACCESS:          0 HIT:          0 MISS:          0
cpu0_STLB PREFETCH     ACCESS:          0 HIT:          0 MISS:          0
cpu0_STLB WRITE        ACCESS:          0 HIT:          0 MISS:          0
cpu0_STLB TRANSLATION  ACCESS:          0 HIT:          0 MISS:          0
cpu0_STLB PREFETCH REQUESTED:          0 ISSUED:          0 USEFUL:          0 USELESS:          0
cpu0_STLB AVERAGE MISS LATENCY: 659 cycles

DRAM Statistics

Channel 0 RQ ROW_BUFFER_HIT:      43950
  ROW_BUFFER_MISS:    2964435
 AVG DBUS CONGESTED CYCLE: 3.973
WQ ROW_BUFFER_HIT: Channel 0 
  ROW_BUFFER_MISS:       1477
  FULL:      54068
