WARNING: physical memory size is smaller than virtual memory size.

*** ChampSim Multicore Out-of-Order Simulator ***
Warmup Instructions: 25000000
Simulation Instructions: 25000000
Number of CPUs: 1
Page size: 4096

Off-chip DRAM Size: 4 GiB Channels: 1 Width: 64-bit Data Race: 800 MT/s
Heartbeat CPU 0 instructions: 10000001 cycles: 2780085 heartbeat IPC: 3.597 cumulative IPC: 3.597 (Simulation time: 00 hr 01 min 04 sec)
Heartbeat CPU 0 instructions: 20000001 cycles: 5280085 heartbeat IPC: 4 cumulative IPC: 3.788 (Simulation time: 00 hr 01 min 58 sec)
Warmup finished CPU 0 instructions: 25000001 cycles: 6530086 cumulative IPC: 3.828 (Simulation time: 00 hr 02 min 29 sec)
Warmup complete CPU 0 instructions: 25000001 cycles: 6530086 cumulative IPC: 3.828 (Simulation time: 00 hr 02 min 29 sec)
Heartbeat CPU 0 instructions: 30000000 cycles: 14930245 heartbeat IPC: 1.036 cumulative IPC: 0.5952 (Simulation time: 00 hr 04 min 15 sec)
Heartbeat CPU 0 instructions: 40000000 cycles: 31730956 heartbeat IPC: 0.5952 cumulative IPC: 0.5952 (Simulation time: 00 hr 07 min 51 sec)
Heartbeat CPU 0 instructions: 50000001 cycles: 48532775 heartbeat IPC: 0.5952 cumulative IPC: 0.5952 (Simulation time: 00 hr 11 min 33 sec)
Simulation finished CPU 0 instructions: 25000000 cycles: 42002690 cumulative IPC: 0.5952 (Simulation time: 00 hr 11 min 33 sec)
Simulation complete CPU 0 instructions: 25000000 cycles: 42002690 cumulative IPC: 0.5952 (Simulation time: 00 hr 11 min 33 sec)

ChampSim completed all CPUs

=== Simulation ===
CPU 0 runs ./traces/milc_409B.trace.xz
Region of Interest Statistics

CPU 0 cumulative IPC: 0.5952 instructions: 25000000 cycles: 42002690
CPU 0 Branch Prediction Accuracy: 100% MPKI: 0.00016 Average ROB Occupancy at Mispredict: 219.8
Branch type MPKI
BRANCH_DIRECT_JUMP: 4e-05
BRANCH_INDIRECT: 0
BRANCH_CONDITIONAL: 0.00012
BRANCH_DIRECT_CALL: 0
BRANCH_INDIRECT_CALL: 0
BRANCH_RETURN: 0

LLC TOTAL        ACCESS:     553334 HIT:     168550 MISS:     384784
LLC LOAD         ACCESS:     382959 HIT:          0 MISS:     382959
LLC RFO          ACCESS:          0 HIT:          0 MISS:          0
LLC PREFETCH     ACCESS:          0 HIT:          0 MISS:          0
LLC WRITE        ACCESS:     170198 HIT:     168550 MISS:       1648
LLC TRANSLATION  ACCESS:        177 HIT:          0 MISS:        177
LLC PREFETCH REQUESTED:          0 ISSUED:          0 USEFUL:          0 USELESS:          0
LLC AVERAGE MISS LATENCY: 439 cycles
cpu0_DTLB TOTAL        ACCESS:    5669375 HIT:    5426805 MISS:     242570
cpu0_DTLB LOAD         ACCESS:    5669375 HIT:    5426805 MISS:     242570
cpu0_DTLB RFO          ACCESS:          0 HIT:          0 MISS:          0
cpu0_DTLB PREFETCH     ACCESS:          0 HIT:          0 MISS:          0
cpu0_DTLB WRITE        ACCESS:          0 HIT:          0 MISS:          0
cpu0_DTLB TRANSLATION  ACCESS:          0 HIT:          0 MISS:          0
cpu0_DTLB PREFETCH REQUESTED:          0 ISSUED:          0 USEFUL:          0 USELESS:          0
cpu0_DTLB AVERAGE MISS LATENCY: 20.74 cycles
cpu0_ITLB TOTAL        ACCESS:          1 HIT:          1 MISS:          0
cpu0_ITLB LOAD         ACCESS:          1 HIT:          1 MISS:          0
cpu0_ITLB RFO          ACCESS:          0 HIT:          0 MISS:          0
cpu0_ITLB PREFETCH     ACCESS:          0 HIT:          0 MISS:          0
cpu0_ITLB WRITE        ACCESS:          0 HIT:          0 MISS:          0
cpu0_ITLB TRANSLATION  ACCESS:          0 HIT:          0 MISS:          0
cpu0_ITLB PREFETCH REQUESTED:          0 ISSUED:          0 USEFUL:          0 USELESS:          0
cpu0_ITLB AVERAGE MISS LATENCY: -nan cycles
cpu0_L1D TOTAL        ACCESS:    7455755 HIT:    6561536 MISS:     894219
cpu0_L1D LOAD         ACCESS:    1624164 HIT:     782044 MISS:     842120
cpu0_L1D RFO          ACCESS:          0 HIT:          0 MISS:          0
cpu0_L1D PREFETCH     ACCESS:          0 HIT:          0 MISS:          0
cpu0_L1D WRITE        ACCESS:    5786959 HIT:    5737024 MISS:      49935
cpu0_L1D TRANSLATION  ACCESS:      44632 HIT:      42468 MISS:       2164
cpu0_L1D PREFETCH REQUESTED:          0 ISSUED:          0 USEFUL:          0 USELESS:          0
cpu0_L1D AVERAGE MISS LATENCY: 159 cycles
cpu0_L1I TOTAL        ACCESS:          1 HIT:          0 MISS:          1
cpu0_L1I LOAD         ACCESS:          1 HIT:          0 MISS:          1
cpu0_L1I RFO          ACCESS:          0 HIT:          0 MISS:          0
cpu0_L1I PREFETCH     ACCESS:          0 HIT:          0 MISS:          0
cpu0_L1I WRITE        ACCESS:          0 HIT:          0 MISS:          0
cpu0_L1I TRANSLATION  ACCESS:          0 HIT:          0 MISS:          0
cpu0_L1I PREFETCH REQUESTED:          0 ISSUED:          0 USEFUL:          0 USELESS:          0
cpu0_L1I AVERAGE MISS LATENCY: 240 cycles
cpu0_L2C TOTAL        ACCESS:     568501 HIT:     185365 MISS:     383136
cpu0_L2C LOAD         ACCESS:     382959 HIT:          0 MISS:     382959
cpu0_L2C RFO          ACCESS:       6566 HIT:       6566 MISS:          0
cpu0_L2C PREFETCH     ACCESS:          0 HIT:          0 MISS:          0
cpu0_L2C WRITE        ACCESS:     176812 HIT:     176812 MISS:          0
cpu0_L2C TRANSLATION  ACCESS:       2164 HIT:       1987 MISS:        177
cpu0_L2C PREFETCH REQUESTED:          0 ISSUED:          0 USEFUL:          0 USELESS:          0
cpu0_L2C AVERAGE MISS LATENCY: 461.9 cycles
cpu0_STLB TOTAL        ACCESS:      44546 HIT:          0 MISS:      44546
cpu0_STLB LOAD         ACCESS:      44546 HIT:          0 MISS:      44546
cpu0_STLB RFO          ACCESS:          0 HIT:          0 MISS:          0
cpu0_STLB PREFETCH     ACCESS:          0 HIT:          0 MISS:          0
cpu0_STLB WRITE        ACCESS:          0 HIT:          0 MISS:          0
cpu0_STLB TRANSLATION  ACCESS:          0 HIT:          0 MISS:          0
cpu0_STLB PREFETCH REQUESTED:          0 ISSUED:          0 USEFUL:          0 USELESS:          0
cpu0_STLB AVERAGE MISS LATENCY: 208.7 cycles

DRAM Statistics

Channel 0 RQ ROW_BUFFER_HIT:     240881
  ROW_BUFFER_MISS:     142253
 AVG DBUS CONGESTED CYCLE: 3.715
WQ ROW_BUFFER_HIT: Channel 0 
  ROW_BUFFER_MISS:      85743
  FULL:      84412
