WARNING: physical memory size is smaller than virtual memory size.

*** ChampSim Multicore Out-of-Order Simulator ***
Warmup Instructions: 25000000
Simulation Instructions: 25000000
Number of CPUs: 1
Page size: 4096

Off-chip DRAM Size: 4 GiB Channels: 1 Width: 64-bit Data Race: 800 MT/s
Heartbeat CPU 0 instructions: 10000000 cycles: 2780080 heartbeat IPC: 3.597 cumulative IPC: 3.597 (Simulation time: 00 hr 00 min 42 sec)
Heartbeat CPU 0 instructions: 20000000 cycles: 5280080 heartbeat IPC: 4 cumulative IPC: 3.788 (Simulation time: 00 hr 01 min 23 sec)
Warmup finished CPU 0 instructions: 25000000 cycles: 6530081 cumulative IPC: 3.828 (Simulation time: 00 hr 01 min 43 sec)
Warmup complete CPU 0 instructions: 25000000 cycles: 6530081 cumulative IPC: 3.828 (Simulation time: 00 hr 01 min 43 sec)
Heartbeat CPU 0 instructions: 30000000 cycles: 15536615 heartbeat IPC: 0.975 cumulative IPC: 0.5552 (Simulation time: 00 hr 03 min 15 sec)
Heartbeat CPU 0 instructions: 40000000 cycles: 33466731 heartbeat IPC: 0.5577 cumulative IPC: 0.5569 (Simulation time: 00 hr 06 min 14 sec)
Heartbeat CPU 0 instructions: 50000001 cycles: 51401375 heartbeat IPC: 0.5576 cumulative IPC: 0.5571 (Simulation time: 00 hr 09 min 19 sec)
Simulation finished CPU 0 instructions: 25000001 cycles: 44871295 cumulative IPC: 0.5571 (Simulation time: 00 hr 09 min 19 sec)
Simulation complete CPU 0 instructions: 25000001 cycles: 44871295 cumulative IPC: 0.5571 (Simulation time: 00 hr 09 min 19 sec)

ChampSim completed all CPUs

=== Simulation ===
CPU 0 runs ./traces/milc_409B.trace.xz
Region of Interest Statistics

CPU 0 cumulative IPC: 0.5571 instructions: 25000001 cycles: 44871295
CPU 0 Branch Prediction Accuracy: 100% MPKI: 0.00016 Average ROB Occupancy at Mispredict: 219.8
Branch type MPKI
BRANCH_DIRECT_JUMP: 4e-05
BRANCH_INDIRECT: 0
BRANCH_CONDITIONAL: 0.00012
BRANCH_DIRECT_CALL: 0
BRANCH_INDIRECT_CALL: 0
BRANCH_RETURN: 0

LLC TOTAL        ACCESS:     723469 HIT:     170211 MISS:     553258
LLC LOAD         ACCESS:     162095 HIT:          0 MISS:     162095
LLC RFO          ACCESS:          0 HIT:          0 MISS:          0
LLC PREFETCH     ACCESS:     391000 HIT:          0 MISS:     391000
LLC WRITE        ACCESS:     170197 HIT:     170128 MISS:         69
LLC TRANSLATION  ACCESS:        177 HIT:         83 MISS:         94
LLC PREFETCH REQUESTED:          0 ISSUED:          0 USEFUL:          0 USELESS:          0
LLC AVERAGE MISS LATENCY: 681.8 cycles
cpu0_DTLB TOTAL        ACCESS:    5712050 HIT:    5478603 MISS:     233447
cpu0_DTLB LOAD         ACCESS:    5712050 HIT:    5478603 MISS:     233447
cpu0_DTLB RFO          ACCESS:          0 HIT:          0 MISS:          0
cpu0_DTLB PREFETCH     ACCESS:          0 HIT:          0 MISS:          0
cpu0_DTLB WRITE        ACCESS:          0 HIT:          0 MISS:          0
cpu0_DTLB TRANSLATION  ACCESS:          0 HIT:          0 MISS:          0
cpu0_DTLB PREFETCH REQUESTED:          0 ISSUED:          0 USEFUL:          0 USELESS:          0
cpu0_DTLB AVERAGE MISS LATENCY: 21.37 cycles
cpu0_ITLB TOTAL        ACCESS:          1 HIT:          1 MISS:          0
cpu0_ITLB LOAD         ACCESS:          1 HIT:          1 MISS:          0
cpu0_ITLB RFO          ACCESS:          0 HIT:          0 MISS:          0
cpu0_ITLB PREFETCH     ACCESS:          0 HIT:          0 MISS:          0
cpu0_ITLB WRITE        ACCESS:          0 HIT:          0 MISS:          0
cpu0_ITLB TRANSLATION  ACCESS:          0 HIT:          0 MISS:          0
cpu0_ITLB PREFETCH REQUESTED:          0 ISSUED:          0 USEFUL:          0 USELESS:          0
cpu0_ITLB AVERAGE MISS LATENCY: -nan cycles
cpu0_L1D TOTAL        ACCESS:    8989534 HIT:    7512650 MISS:    1476884
cpu0_L1D LOAD         ACCESS:    1579548 HIT:     994535 MISS:     585013
cpu0_L1D RFO          ACCESS:          0 HIT:          0 MISS:          0
cpu0_L1D PREFETCH     ACCESS:    1578395 HIT:     750621 MISS:     827774
cpu0_L1D WRITE        ACCESS:    5786959 HIT:    5725026 MISS:      61933
cpu0_L1D TRANSLATION  ACCESS:      44632 HIT:      42468 MISS:       2164
cpu0_L1D PREFETCH REQUESTED:    1579548 ISSUED:    1578395 USEFUL:     166240 USELESS:     172131
cpu0_L1D AVERAGE MISS LATENCY: 212.2 cycles
cpu0_L1I TOTAL        ACCESS:          1 HIT:          0 MISS:          1
cpu0_L1I LOAD         ACCESS:          1 HIT:          0 MISS:          1
cpu0_L1I RFO          ACCESS:          0 HIT:          0 MISS:          0
cpu0_L1I PREFETCH     ACCESS:          0 HIT:          0 MISS:          0
cpu0_L1I WRITE        ACCESS:          0 HIT:          0 MISS:          0
cpu0_L1I TRANSLATION  ACCESS:          0 HIT:          0 MISS:          0
cpu0_L1I PREFETCH REQUESTED:          0 ISSUED:          0 USEFUL:          0 USELESS:          0
cpu0_L1I AVERAGE MISS LATENCY: 240 cycles
cpu0_L2C TOTAL        ACCESS:     830858 HIT:     198542 MISS:     632316
cpu0_L2C LOAD         ACCESS:     216719 HIT:        423 MISS:     216296
cpu0_L2C RFO          ACCESS:      11848 HIT:      11848 MISS:          0
cpu0_L2C PREFETCH     ACCESS:     417839 HIT:       1996 MISS:     415843
cpu0_L2C WRITE        ACCESS:     182288 HIT:     182288 MISS:          0
cpu0_L2C TRANSLATION  ACCESS:       2164 HIT:       1987 MISS:        177
cpu0_L2C PREFETCH REQUESTED:      79464 ISSUED:      79464 USEFUL:      57053 USELESS:          0
cpu0_L2C AVERAGE MISS LATENCY: 583.9 cycles
cpu0_STLB TOTAL        ACCESS:      44546 HIT:          0 MISS:      44546
cpu0_STLB LOAD         ACCESS:      44546 HIT:          0 MISS:      44546
cpu0_STLB RFO          ACCESS:          0 HIT:          0 MISS:          0
cpu0_STLB PREFETCH     ACCESS:          0 HIT:          0 MISS:          0
cpu0_STLB WRITE        ACCESS:          0 HIT:          0 MISS:          0
cpu0_STLB TRANSLATION  ACCESS:          0 HIT:          0 MISS:          0
cpu0_STLB PREFETCH REQUESTED:          0 ISSUED:          0 USEFUL:          0 USELESS:          0
cpu0_STLB AVERAGE MISS LATENCY: 208.2 cycles

DRAM Statistics

Channel 0 RQ ROW_BUFFER_HIT:     375037
  ROW_BUFFER_MISS:     178148
 AVG DBUS CONGESTED CYCLE: 3.844
WQ ROW_BUFFER_HIT: Channel 0 
  ROW_BUFFER_MISS:     101448
  FULL:      68703
