WARNING: physical memory size is smaller than virtual memory size.

*** ChampSim Multicore Out-of-Order Simulator ***
Warmup Instructions: 25000000
Simulation Instructions: 25000000
Number of CPUs: 1
Page size: 4096

Off-chip DRAM Size: 4 GiB Channels: 1 Width: 64-bit Data Race: 800 MT/s
Heartbeat CPU 0 instructions: 10000002 cycles: 2500079 heartbeat IPC: 4 cumulative IPC: 4 (Simulation time: 00 hr 00 min 39 sec)
Heartbeat CPU 0 instructions: 20000002 cycles: 5000079 heartbeat IPC: 4 cumulative IPC: 4 (Simulation time: 00 hr 01 min 18 sec)
Warmup finished CPU 0 instructions: 25000002 cycles: 6250080 cumulative IPC: 4 (Simulation time: 00 hr 01 min 38 sec)
Warmup complete CPU 0 instructions: 25000002 cycles: 6250080 cumulative IPC: 4 (Simulation time: 00 hr 01 min 38 sec)
Heartbeat CPU 0 instructions: 30000000 cycles: 13587738 heartbeat IPC: 1.164 cumulative IPC: 0.6814 (Simulation time: 00 hr 02 min 55 sec)
Heartbeat CPU 0 instructions: 40000003 cycles: 28691757 heartbeat IPC: 0.6621 cumulative IPC: 0.6684 (Simulation time: 00 hr 05 min 24 sec)
Heartbeat CPU 0 instructions: 50000002 cycles: 44023771 heartbeat IPC: 0.6522 cumulative IPC: 0.6618 (Simulation time: 00 hr 08 min 02 sec)
Simulation finished CPU 0 instructions: 25000000 cycles: 37773692 cumulative IPC: 0.6618 (Simulation time: 00 hr 08 min 02 sec)
Simulation complete CPU 0 instructions: 25000000 cycles: 37773692 cumulative IPC: 0.6618 (Simulation time: 00 hr 08 min 02 sec)

ChampSim completed all CPUs

=== Simulation ===
CPU 0 runs ./traces/milc_744B.trace.xz
Region of Interest Statistics

CPU 0 cumulative IPC: 0.6618 instructions: 25000000 cycles: 37773692
CPU 0 Branch Prediction Accuracy: 85.71% MPKI: 2.288 Average ROB Occupancy at Mispredict: 352
Branch type MPKI
BRANCH_DIRECT_JUMP: 0
BRANCH_INDIRECT: 0
BRANCH_CONDITIONAL: 2.29
BRANCH_DIRECT_CALL: 0
BRANCH_INDIRECT_CALL: 0
BRANCH_RETURN: 0

LLC TOTAL        ACCESS:     569712 HIT:      86102 MISS:     483610
LLC LOAD         ACCESS:     268890 HIT:          0 MISS:     268890
LLC RFO          ACCESS:          0 HIT:          0 MISS:          0
LLC PREFETCH     ACCESS:     214188 HIT:        123 MISS:     214065
LLC WRITE        ACCESS:      85118 HIT:      84725 MISS:        393
LLC TRANSLATION  ACCESS:       1516 HIT:       1254 MISS:        262
LLC PREFETCH REQUESTED:          0 ISSUED:          0 USEFUL:          0 USELESS:          0
LLC AVERAGE MISS LATENCY: 444.3 cycles
cpu0_DTLB TOTAL        ACCESS:    4350957 HIT:    3893717 MISS:     457240
cpu0_DTLB LOAD         ACCESS:    4350957 HIT:    3893717 MISS:     457240
cpu0_DTLB RFO          ACCESS:          0 HIT:          0 MISS:          0
cpu0_DTLB PREFETCH     ACCESS:          0 HIT:          0 MISS:          0
cpu0_DTLB WRITE        ACCESS:          0 HIT:          0 MISS:          0
cpu0_DTLB TRANSLATION  ACCESS:          0 HIT:          0 MISS:          0
cpu0_DTLB PREFETCH REQUESTED:          0 ISSUED:          0 USEFUL:          0 USELESS:          0
cpu0_DTLB AVERAGE MISS LATENCY: 12.45 cycles
cpu0_ITLB TOTAL        ACCESS:          0 HIT:          0 MISS:          0
cpu0_ITLB LOAD         ACCESS:          0 HIT:          0 MISS:          0
cpu0_ITLB RFO          ACCESS:          0 HIT:          0 MISS:          0
cpu0_ITLB PREFETCH     ACCESS:          0 HIT:          0 MISS:          0
cpu0_ITLB WRITE        ACCESS:          0 HIT:          0 MISS:          0
cpu0_ITLB TRANSLATION  ACCESS:          0 HIT:          0 MISS:          0
cpu0_ITLB PREFETCH REQUESTED:          0 ISSUED:          0 USEFUL:          0 USELESS:          0
cpu0_ITLB AVERAGE MISS LATENCY: -nan cycles
cpu0_L1D TOTAL        ACCESS:    8280955 HIT:    4055011 MISS:    4225944
cpu0_L1D LOAD         ACCESS:    4027773 HIT:    1368505 MISS:    2659268
cpu0_L1D RFO          ACCESS:          0 HIT:          0 MISS:          0
cpu0_L1D PREFETCH     ACCESS:    2591416 HIT:    1027146 MISS:    1564270
cpu0_L1D WRITE        ACCESS:    1628953 HIT:    1628953 MISS:          0
cpu0_L1D TRANSLATION  ACCESS:      32813 HIT:      30407 MISS:       2406
cpu0_L1D PREFETCH REQUESTED:    4027773 ISSUED:    2591407 USEFUL:      31530 USELESS:      90278
cpu0_L1D AVERAGE MISS LATENCY: 33.35 cycles
cpu0_L1I TOTAL        ACCESS:          0 HIT:          0 MISS:          0
cpu0_L1I LOAD         ACCESS:          0 HIT:          0 MISS:          0
cpu0_L1I RFO          ACCESS:          0 HIT:          0 MISS:          0
cpu0_L1I PREFETCH     ACCESS:          0 HIT:          0 MISS:          0
cpu0_L1I WRITE        ACCESS:          0 HIT:          0 MISS:          0
cpu0_L1I TRANSLATION  ACCESS:          0 HIT:          0 MISS:          0
cpu0_L1I PREFETCH REQUESTED:          0 ISSUED:          0 USEFUL:          0 USELESS:          0
cpu0_L1I AVERAGE MISS LATENCY: -nan cycles
cpu0_L2C TOTAL        ACCESS:     682024 HIT:     193779 MISS:     488245
cpu0_L2C LOAD         ACCESS:     318865 HIT:      49972 MISS:     268893
cpu0_L2C RFO          ACCESS:          0 HIT:          0 MISS:          0
cpu0_L2C PREFETCH     ACCESS:     275055 HIT:      60852 MISS:     214203
cpu0_L2C WRITE        ACCESS:      85735 HIT:      82102 MISS:       3633
cpu0_L2C TRANSLATION  ACCESS:       2369 HIT:        853 MISS:       1516
cpu0_L2C PREFETCH REQUESTED:     153329 ISSUED:     153329 USEFUL:      50814 USELESS:      42755
cpu0_L2C AVERAGE MISS LATENCY: 460.9 cycles
cpu0_STLB TOTAL        ACCESS:      33518 HIT:        771 MISS:      32747
cpu0_STLB LOAD         ACCESS:      33518 HIT:        771 MISS:      32747
cpu0_STLB RFO          ACCESS:          0 HIT:          0 MISS:          0
cpu0_STLB PREFETCH     ACCESS:          0 HIT:          0 MISS:          0
cpu0_STLB WRITE        ACCESS:          0 HIT:          0 MISS:          0
cpu0_STLB TRANSLATION  ACCESS:          0 HIT:          0 MISS:          0
cpu0_STLB PREFETCH REQUESTED:          0 ISSUED:          0 USEFUL:          0 USELESS:          0
cpu0_STLB AVERAGE MISS LATENCY: 211.7 cycles

DRAM Statistics

Channel 0 RQ ROW_BUFFER_HIT:     205616
  ROW_BUFFER_MISS:     277597
 AVG DBUS CONGESTED CYCLE: 3.883
WQ ROW_BUFFER_HIT: Channel 0 
  ROW_BUFFER_MISS:        712
  FULL:      79745
