WARNING: physical memory size is smaller than virtual memory size.

*** ChampSim Multicore Out-of-Order Simulator ***
Warmup Instructions: 25000000
Simulation Instructions: 25000000
Number of CPUs: 1
Page size: 4096

Off-chip DRAM Size: 4 GiB Channels: 1 Width: 64-bit Data Race: 800 MT/s
Heartbeat CPU 0 instructions: 10000001 cycles: 2500095 heartbeat IPC: 4 cumulative IPC: 4 (Simulation time: 00 hr 00 min 40 sec)
Heartbeat CPU 0 instructions: 20000001 cycles: 5000095 heartbeat IPC: 4 cumulative IPC: 4 (Simulation time: 00 hr 01 min 20 sec)
Warmup finished CPU 0 instructions: 25000001 cycles: 6250096 cumulative IPC: 4 (Simulation time: 00 hr 01 min 41 sec)
Warmup complete CPU 0 instructions: 25000001 cycles: 6250096 cumulative IPC: 4 (Simulation time: 00 hr 01 min 41 sec)
Heartbeat CPU 0 instructions: 30000002 cycles: 15789389 heartbeat IPC: 0.9268 cumulative IPC: 0.5241 (Simulation time: 00 hr 03 min 14 sec)
Heartbeat CPU 0 instructions: 40000002 cycles: 34801619 heartbeat IPC: 0.526 cumulative IPC: 0.5254 (Simulation time: 00 hr 06 min 14 sec)
Heartbeat CPU 0 instructions: 50000002 cycles: 68715574 heartbeat IPC: 0.2949 cumulative IPC: 0.4002 (Simulation time: 00 hr 11 min 38 sec)
Simulation finished CPU 0 instructions: 25000001 cycles: 62465479 cumulative IPC: 0.4002 (Simulation time: 00 hr 11 min 38 sec)
Simulation complete CPU 0 instructions: 25000001 cycles: 62465479 cumulative IPC: 0.4002 (Simulation time: 00 hr 11 min 38 sec)

ChampSim completed all CPUs

=== Simulation ===
CPU 0 runs ./traces/milc_360B.trace.xz
Region of Interest Statistics

CPU 0 cumulative IPC: 0.4002 instructions: 25000001 cycles: 62465479
CPU 0 Branch Prediction Accuracy: 100% MPKI: 0.00052 Average ROB Occupancy at Mispredict: 99.77
Branch type MPKI
BRANCH_DIRECT_JUMP: 0
BRANCH_INDIRECT: 0
BRANCH_CONDITIONAL: 0.00036
BRANCH_DIRECT_CALL: 0.00012
BRANCH_INDIRECT_CALL: 0
BRANCH_RETURN: 4e-05

LLC TOTAL        ACCESS:     898546 HIT:     245669 MISS:     652877
LLC LOAD         ACCESS:     214508 HIT:        859 MISS:     213649
LLC RFO          ACCESS:       2962 HIT:          0 MISS:       2962
LLC PREFETCH     ACCESS:     435787 HIT:        451 MISS:     435336
LLC WRITE        ACCESS:     245129 HIT:     244286 MISS:        843
LLC TRANSLATION  ACCESS:        160 HIT:         73 MISS:         87
LLC PREFETCH REQUESTED:          0 ISSUED:          0 USEFUL:          0 USELESS:          0
LLC AVERAGE MISS LATENCY: 1129 cycles
cpu0_DTLB TOTAL        ACCESS:    6038279 HIT:    5818290 MISS:     219989
cpu0_DTLB LOAD         ACCESS:    6038279 HIT:    5818290 MISS:     219989
cpu0_DTLB RFO          ACCESS:          0 HIT:          0 MISS:          0
cpu0_DTLB PREFETCH     ACCESS:          0 HIT:          0 MISS:          0
cpu0_DTLB WRITE        ACCESS:          0 HIT:          0 MISS:          0
cpu0_DTLB TRANSLATION  ACCESS:          0 HIT:          0 MISS:          0
cpu0_DTLB PREFETCH REQUESTED:          0 ISSUED:          0 USEFUL:          0 USELESS:          0
cpu0_DTLB AVERAGE MISS LATENCY: 18.13 cycles
cpu0_ITLB TOTAL        ACCESS:         17 HIT:         15 MISS:          2
cpu0_ITLB LOAD         ACCESS:         17 HIT:         15 MISS:          2
cpu0_ITLB RFO          ACCESS:          0 HIT:          0 MISS:          0
cpu0_ITLB PREFETCH     ACCESS:          0 HIT:          0 MISS:          0
cpu0_ITLB WRITE        ACCESS:          0 HIT:          0 MISS:          0
cpu0_ITLB TRANSLATION  ACCESS:          0 HIT:          0 MISS:          0
cpu0_ITLB PREFETCH REQUESTED:          0 ISSUED:          0 USEFUL:          0 USELESS:          0
cpu0_ITLB AVERAGE MISS LATENCY: 972 cycles
cpu0_L1D TOTAL        ACCESS:   10575852 HIT:    7116805 MISS:    3459047
cpu0_L1D LOAD         ACCESS:    2738937 HIT:    1032911 MISS:    1706026
cpu0_L1D RFO          ACCESS:          0 HIT:          0 MISS:          0
cpu0_L1D PREFETCH     ACCESS:    2418245 HIT:     736022 MISS:    1682223
cpu0_L1D WRITE        ACCESS:    5382137 HIT:    5312958 MISS:      69179
cpu0_L1D TRANSLATION  ACCESS:      36533 HIT:      34914 MISS:       1619
cpu0_L1D PREFETCH REQUESTED:    2748650 ISSUED:    2418253 USEFUL:     276891 USELESS:     126186
cpu0_L1D AVERAGE MISS LATENCY: 167.9 cycles
cpu0_L1I TOTAL        ACCESS:         17 HIT:          3 MISS:         14
cpu0_L1I LOAD         ACCESS:         17 HIT:          3 MISS:         14
cpu0_L1I RFO          ACCESS:          0 HIT:          0 MISS:          0
cpu0_L1I PREFETCH     ACCESS:          0 HIT:          0 MISS:          0
cpu0_L1I WRITE        ACCESS:          0 HIT:          0 MISS:          0
cpu0_L1I TRANSLATION  ACCESS:          0 HIT:          0 MISS:          0
cpu0_L1I PREFETCH REQUESTED:          0 ISSUED:          0 USEFUL:          0 USELESS:          0
cpu0_L1I AVERAGE MISS LATENCY: 374.6 cycles
cpu0_L2C TOTAL        ACCESS:    1035859 HIT:     276198 MISS:     759661
cpu0_L2C LOAD         ACCESS:     245132 HIT:       3795 MISS:     241337
cpu0_L2C RFO          ACCESS:      11971 HIT:       9008 MISS:       2963
cpu0_L2C PREFETCH     ACCESS:     520784 HIT:       5585 MISS:     515199
cpu0_L2C WRITE        ACCESS:     256355 HIT:     256353 MISS:          2
cpu0_L2C TRANSLATION  ACCESS:       1617 HIT:       1457 MISS:        160
cpu0_L2C PREFETCH REQUESTED:     117742 ISSUED:     117742 USEFUL:      39127 USELESS:       2644
cpu0_L2C AVERAGE MISS LATENCY: 958.4 cycles
cpu0_STLB TOTAL        ACCESS:      36455 HIT:          0 MISS:      36455
cpu0_STLB LOAD         ACCESS:      36455 HIT:          0 MISS:      36455
cpu0_STLB RFO          ACCESS:          0 HIT:          0 MISS:          0
cpu0_STLB PREFETCH     ACCESS:          0 HIT:          0 MISS:          0
cpu0_STLB WRITE        ACCESS:          0 HIT:          0 MISS:          0
cpu0_STLB TRANSLATION  ACCESS:          0 HIT:          0 MISS:          0
cpu0_STLB PREFETCH REQUESTED:          0 ISSUED:          0 USEFUL:          0 USELESS:          0
cpu0_STLB AVERAGE MISS LATENCY: 208.4 cycles

DRAM Statistics

Channel 0 RQ ROW_BUFFER_HIT:     441838
  ROW_BUFFER_MISS:     207919
 AVG DBUS CONGESTED CYCLE: 3.879
WQ ROW_BUFFER_HIT: Channel 0 
  ROW_BUFFER_MISS:     100715
  FULL:     131751
