WARNING: physical memory size is smaller than virtual memory size.

*** ChampSim Multicore Out-of-Order Simulator ***
Warmup Instructions: 25000000
Simulation Instructions: 25000000
Number of CPUs: 1
Page size: 4096

Off-chip DRAM Size: 4 GiB Channels: 1 Width: 64-bit Data Race: 800 MT/s
Heartbeat CPU 0 instructions: 10000003 cycles: 2516994 heartbeat IPC: 3.973 cumulative IPC: 3.973 (Simulation time: 00 hr 00 min 37 sec)
Heartbeat CPU 0 instructions: 20000001 cycles: 5026579 heartbeat IPC: 3.985 cumulative IPC: 3.979 (Simulation time: 00 hr 01 min 13 sec)
Warmup finished CPU 0 instructions: 25000003 cycles: 6284998 cumulative IPC: 3.978 (Simulation time: 00 hr 01 min 32 sec)
Warmup complete CPU 0 instructions: 25000003 cycles: 6284998 cumulative IPC: 3.978 (Simulation time: 00 hr 01 min 32 sec)
Heartbeat CPU 0 instructions: 30000000 cycles: 15209876 heartbeat IPC: 0.982 cumulative IPC: 0.5602 (Simulation time: 00 hr 02 min 55 sec)
Heartbeat CPU 0 instructions: 40000001 cycles: 32244023 heartbeat IPC: 0.5871 cumulative IPC: 0.5778 (Simulation time: 00 hr 05 min 43 sec)
Heartbeat CPU 0 instructions: 50000002 cycles: 47350790 heartbeat IPC: 0.662 cumulative IPC: 0.6088 (Simulation time: 00 hr 08 min 13 sec)
Simulation finished CPU 0 instructions: 25000003 cycles: 41065794 cumulative IPC: 0.6088 (Simulation time: 00 hr 08 min 13 sec)
Simulation complete CPU 0 instructions: 25000003 cycles: 41065794 cumulative IPC: 0.6088 (Simulation time: 00 hr 08 min 13 sec)

ChampSim completed all CPUs

=== Simulation ===
CPU 0 runs ./traces/omnetpp_4B.trace.xz
Region of Interest Statistics

CPU 0 cumulative IPC: 0.6088 instructions: 25000003 cycles: 41065794
CPU 0 Branch Prediction Accuracy: 96.67% MPKI: 10.7 Average ROB Occupancy at Mispredict: 31.22
Branch type MPKI
BRANCH_DIRECT_JUMP: 0.0128
BRANCH_INDIRECT: 0.125
BRANCH_CONDITIONAL: 10.5
BRANCH_DIRECT_CALL: 0.00156
BRANCH_INDIRECT_CALL: 0.00548
BRANCH_RETURN: 0.0298

LLC TOTAL        ACCESS:     949619 HIT:     444851 MISS:     504768
LLC LOAD         ACCESS:     569268 HIT:     299413 MISS:     269855
LLC RFO          ACCESS:       6331 HIT:       1742 MISS:       4589
LLC PREFETCH     ACCESS:     289801 HIT:     113160 MISS:     176641
LLC WRITE        ACCESS:      20970 HIT:      20623 MISS:        347
LLC TRANSLATION  ACCESS:      63249 HIT:       9913 MISS:      53336
LLC PREFETCH REQUESTED:          0 ISSUED:          0 USEFUL:          0 USELESS:          0
LLC AVERAGE MISS LATENCY: 897.9 cycles
cpu0_DTLB TOTAL        ACCESS:    3092544 HIT:    2612714 MISS:     479830
cpu0_DTLB LOAD         ACCESS:    3092544 HIT:    2612714 MISS:     479830
cpu0_DTLB RFO          ACCESS:          0 HIT:          0 MISS:          0
cpu0_DTLB PREFETCH     ACCESS:          0 HIT:          0 MISS:          0
cpu0_DTLB WRITE        ACCESS:          0 HIT:          0 MISS:          0
cpu0_DTLB TRANSLATION  ACCESS:          0 HIT:          0 MISS:          0
cpu0_DTLB PREFETCH REQUESTED:          0 ISSUED:          0 USEFUL:          0 USELESS:          0
cpu0_DTLB AVERAGE MISS LATENCY: 236.7 cycles
cpu0_ITLB TOTAL        ACCESS:     265091 HIT:     247677 MISS:      17414
cpu0_ITLB LOAD         ACCESS:     265091 HIT:     247677 MISS:      17414
cpu0_ITLB RFO          ACCESS:          0 HIT:          0 MISS:          0
cpu0_ITLB PREFETCH     ACCESS:          0 HIT:          0 MISS:          0
cpu0_ITLB WRITE        ACCESS:          0 HIT:          0 MISS:          0
cpu0_ITLB TRANSLATION  ACCESS:          0 HIT:          0 MISS:          0
cpu0_ITLB PREFETCH REQUESTED:          0 ISSUED:          0 USEFUL:          0 USELESS:          0
cpu0_ITLB AVERAGE MISS LATENCY: 8.938 cycles
cpu0_L1D TOTAL        ACCESS:    6168247 HIT:    4860274 MISS:    1307973
cpu0_L1D LOAD         ACCESS:    2373172 HIT:    1748664 MISS:     624508
cpu0_L1D RFO          ACCESS:          0 HIT:          0 MISS:          0
cpu0_L1D PREFETCH     ACCESS:    2228554 HIT:    1662942 MISS:     565612
cpu0_L1D WRITE        ACCESS:    1204396 HIT:    1158627 MISS:      45769
cpu0_L1D TRANSLATION  ACCESS:     362125 HIT:     290041 MISS:      72084
cpu0_L1D PREFETCH REQUESTED:   20169553 ISSUED:    2228554 USEFUL:      39242 USELESS:     196334
cpu0_L1D AVERAGE MISS LATENCY: 357.7 cycles
cpu0_L1I TOTAL        ACCESS:     291267 HIT:     267336 MISS:      23931
cpu0_L1I LOAD         ACCESS:     291267 HIT:     267336 MISS:      23931
cpu0_L1I RFO          ACCESS:          0 HIT:          0 MISS:          0
cpu0_L1I PREFETCH     ACCESS:          0 HIT:          0 MISS:          0
cpu0_L1I WRITE        ACCESS:          0 HIT:          0 MISS:          0
cpu0_L1I TRANSLATION  ACCESS:          0 HIT:          0 MISS:          0
cpu0_L1I PREFETCH REQUESTED:          0 ISSUED:          0 USEFUL:          0 USELESS:          0
cpu0_L1I AVERAGE MISS LATENCY: 64.08 cycles
cpu0_L2C TOTAL        ACCESS:    1042756 HIT:      93083 MISS:     949673
cpu0_L2C LOAD         ACCESS:     602880 HIT:      27573 MISS:     575307
cpu0_L2C RFO          ACCESS:       8105 HIT:       1768 MISS:       6337
cpu0_L2C PREFETCH     ACCESS:     340242 HIT:      35478 MISS:     304764
cpu0_L2C WRITE        ACCESS:      23212 HIT:      23196 MISS:         16
cpu0_L2C TRANSLATION  ACCESS:      68317 HIT:       5068 MISS:      63249
cpu0_L2C PREFETCH REQUESTED:     104659 ISSUED:     104659 USEFUL:      29715 USELESS:       1051
cpu0_L2C AVERAGE MISS LATENCY: 491.8 cycles
cpu0_STLB TOTAL        ACCESS:     365498 HIT:       5913 MISS:     359585
cpu0_STLB LOAD         ACCESS:     365498 HIT:       5913 MISS:     359585
cpu0_STLB RFO          ACCESS:          0 HIT:          0 MISS:          0
cpu0_STLB PREFETCH     ACCESS:          0 HIT:          0 MISS:          0
cpu0_STLB WRITE        ACCESS:          0 HIT:          0 MISS:          0
cpu0_STLB TRANSLATION  ACCESS:          0 HIT:          0 MISS:          0
cpu0_STLB PREFETCH REQUESTED:          0 ISSUED:          0 USEFUL:          0 USELESS:          0
cpu0_STLB AVERAGE MISS LATENCY: 321.4 cycles

DRAM Statistics

Channel 0 RQ ROW_BUFFER_HIT:     210632
  ROW_BUFFER_MISS:     288170
 AVG DBUS CONGESTED CYCLE: 3.857
WQ ROW_BUFFER_HIT: Channel 0 
  ROW_BUFFER_MISS:       3148
  FULL:      14520
