WARNING: physical memory size is smaller than virtual memory size.

*** ChampSim Multicore Out-of-Order Simulator ***
Warmup Instructions: 25000000
Simulation Instructions: 25000000
Number of CPUs: 1
Page size: 4096

Off-chip DRAM Size: 4 GiB Channels: 1 Width: 64-bit Data Race: 800 MT/s
Heartbeat CPU 0 instructions: 10000000 cycles: 2515468 heartbeat IPC: 3.975 cumulative IPC: 3.975 (Simulation time: 00 hr 00 min 46 sec)
Heartbeat CPU 0 instructions: 20000000 cycles: 5032242 heartbeat IPC: 3.973 cumulative IPC: 3.974 (Simulation time: 00 hr 01 min 33 sec)
Warmup finished CPU 0 instructions: 25000000 cycles: 6290080 cumulative IPC: 3.975 (Simulation time: 00 hr 01 min 55 sec)
Warmup complete CPU 0 instructions: 25000000 cycles: 6290080 cumulative IPC: 3.975 (Simulation time: 00 hr 01 min 55 sec)
Heartbeat CPU 0 instructions: 30000002 cycles: 23763526 heartbeat IPC: 0.5339 cumulative IPC: 0.2861 (Simulation time: 00 hr 04 min 00 sec)
Heartbeat CPU 0 instructions: 40000002 cycles: 58431674 heartbeat IPC: 0.2884 cumulative IPC: 0.2877 (Simulation time: 00 hr 08 min 14 sec)
Heartbeat CPU 0 instructions: 50000001 cycles: 89184219 heartbeat IPC: 0.3252 cumulative IPC: 0.3016 (Simulation time: 00 hr 11 min 29 sec)
Simulation finished CPU 0 instructions: 25000001 cycles: 82894140 cumulative IPC: 0.3016 (Simulation time: 00 hr 11 min 29 sec)
Simulation complete CPU 0 instructions: 25000001 cycles: 82894140 cumulative IPC: 0.3016 (Simulation time: 00 hr 11 min 29 sec)

ChampSim completed all CPUs

=== Simulation ===
CPU 0 runs ./traces/omnetpp_340B.trace.xz
Region of Interest Statistics

CPU 0 cumulative IPC: 0.3016 instructions: 25000001 cycles: 82894140
CPU 0 Branch Prediction Accuracy: 92.7% MPKI: 17.4 Average ROB Occupancy at Mispredict: 50.55
Branch type MPKI
BRANCH_DIRECT_JUMP: 0.00016
BRANCH_INDIRECT: 0.0548
BRANCH_CONDITIONAL: 17.3
BRANCH_DIRECT_CALL: 4e-05
BRANCH_INDIRECT_CALL: 0.063
BRANCH_RETURN: 0.0296

LLC TOTAL        ACCESS:    1125069 HIT:     425663 MISS:     699406
LLC LOAD         ACCESS:     376476 HIT:      81143 MISS:     295333
LLC RFO          ACCESS:      56081 HIT:       9016 MISS:      47065
LLC PREFETCH     ACCESS:     375110 HIT:      74547 MISS:     300563
LLC WRITE        ACCESS:     237131 HIT:     235005 MISS:       2126
LLC TRANSLATION  ACCESS:      80271 HIT:      25952 MISS:      54319
LLC PREFETCH REQUESTED:          0 ISSUED:          0 USEFUL:          0 USELESS:          0
LLC AVERAGE MISS LATENCY: 436.2 cycles
cpu0_DTLB TOTAL        ACCESS:    7706784 HIT:    7064336 MISS:     642448
cpu0_DTLB LOAD         ACCESS:    7706784 HIT:    7064336 MISS:     642448
cpu0_DTLB RFO          ACCESS:          0 HIT:          0 MISS:          0
cpu0_DTLB PREFETCH     ACCESS:          0 HIT:          0 MISS:          0
cpu0_DTLB WRITE        ACCESS:          0 HIT:          0 MISS:          0
cpu0_DTLB TRANSLATION  ACCESS:          0 HIT:          0 MISS:          0
cpu0_DTLB PREFETCH REQUESTED:          0 ISSUED:          0 USEFUL:          0 USELESS:          0
cpu0_DTLB AVERAGE MISS LATENCY: 47.88 cycles
cpu0_ITLB TOTAL        ACCESS:    1067590 HIT:    1065619 MISS:       1971
cpu0_ITLB LOAD         ACCESS:    1067590 HIT:    1065619 MISS:       1971
cpu0_ITLB RFO          ACCESS:          0 HIT:          0 MISS:          0
cpu0_ITLB PREFETCH     ACCESS:          0 HIT:          0 MISS:          0
cpu0_ITLB WRITE        ACCESS:          0 HIT:          0 MISS:          0
cpu0_ITLB TRANSLATION  ACCESS:          0 HIT:          0 MISS:          0
cpu0_ITLB PREFETCH REQUESTED:          0 ISSUED:          0 USEFUL:          0 USELESS:          0
cpu0_ITLB AVERAGE MISS LATENCY: 31.84 cycles
cpu0_L1D TOTAL        ACCESS:   14026299 HIT:   11839927 MISS:    2186372
cpu0_L1D LOAD         ACCESS:    5089616 HIT:    4239048 MISS:     850568
cpu0_L1D RFO          ACCESS:          0 HIT:          0 MISS:          0
cpu0_L1D PREFETCH     ACCESS:    4561672 HIT:    3650000 MISS:     911672
cpu0_L1D WRITE        ACCESS:    4256376 HIT:    3944441 MISS:     311935
cpu0_L1D TRANSLATION  ACCESS:     118635 HIT:       6438 MISS:     112197
cpu0_L1D PREFETCH REQUESTED:    5409404 ISSUED:    4561665 USEFUL:     131663 USELESS:     342064
cpu0_L1D AVERAGE MISS LATENCY: 142.1 cycles
cpu0_L1I TOTAL        ACCESS:    1148835 HIT:    1146117 MISS:       2718
cpu0_L1I LOAD         ACCESS:    1148835 HIT:    1146117 MISS:       2718
cpu0_L1I RFO          ACCESS:          0 HIT:          0 MISS:          0
cpu0_L1I PREFETCH     ACCESS:          0 HIT:          0 MISS:          0
cpu0_L1I WRITE        ACCESS:          0 HIT:          0 MISS:          0
cpu0_L1I TRANSLATION  ACCESS:          0 HIT:          0 MISS:          0
cpu0_L1I PREFETCH REQUESTED:          0 ISSUED:          0 USEFUL:          0 USELESS:          0
cpu0_L1I AVERAGE MISS LATENCY: 75.71 cycles
cpu0_L2C TOTAL        ACCESS:    1494078 HIT:     603232 MISS:     890846
cpu0_L2C LOAD         ACCESS:     515665 HIT:     138729 MISS:     376936
cpu0_L2C RFO          ACCESS:      71172 HIT:      15091 MISS:      56081
cpu0_L2C PREFETCH     ACCESS:     494792 HIT:     118996 MISS:     375796
cpu0_L2C WRITE        ACCESS:     300573 HIT:     298811 MISS:       1762
cpu0_L2C TRANSLATION  ACCESS:     111876 HIT:      31605 MISS:      80271
cpu0_L2C PREFETCH REQUESTED:      21022 ISSUED:      21022 USEFUL:       3903 USELESS:      13016
cpu0_L2C AVERAGE MISS LATENCY: 362.5 cycles
cpu0_STLB TOTAL        ACCESS:     455697 HIT:     341938 MISS:     113759
cpu0_STLB LOAD         ACCESS:     455697 HIT:     341938 MISS:     113759
cpu0_STLB RFO          ACCESS:          0 HIT:          0 MISS:          0
cpu0_STLB PREFETCH     ACCESS:          0 HIT:          0 MISS:          0
cpu0_STLB WRITE        ACCESS:          0 HIT:          0 MISS:          0
cpu0_STLB TRANSLATION  ACCESS:          0 HIT:          0 MISS:          0
cpu0_STLB PREFETCH REQUESTED:          0 ISSUED:          0 USEFUL:          0 USELESS:          0
cpu0_STLB AVERAGE MISS LATENCY: 250.4 cycles

DRAM Statistics

Channel 0 RQ ROW_BUFFER_HIT:     108239
  ROW_BUFFER_MISS:     588697
 AVG DBUS CONGESTED CYCLE: 3.941
WQ ROW_BUFFER_HIT: Channel 0 
  ROW_BUFFER_MISS:       1152
  FULL:     189183
