WARNING: physical memory size is smaller than virtual memory size.

*** ChampSim Multicore Out-of-Order Simulator ***
Warmup Instructions: 25000000
Simulation Instructions: 25000000
Number of CPUs: 1
Page size: 4096

Off-chip DRAM Size: 4 GiB Channels: 1 Width: 64-bit Data Race: 800 MT/s
Heartbeat CPU 0 instructions: 10000002 cycles: 2500088 heartbeat IPC: 4 cumulative IPC: 4 (Simulation time: 00 hr 00 min 52 sec)
Heartbeat CPU 0 instructions: 20000001 cycles: 5000091 heartbeat IPC: 4 cumulative IPC: 4 (Simulation time: 00 hr 01 min 36 sec)
Warmup finished CPU 0 instructions: 25000000 cycles: 6250106 cumulative IPC: 4 (Simulation time: 00 hr 02 min 01 sec)
Warmup complete CPU 0 instructions: 25000000 cycles: 6250106 cumulative IPC: 4 (Simulation time: 00 hr 02 min 01 sec)
Heartbeat CPU 0 instructions: 30000002 cycles: 12016399 heartbeat IPC: 1.425 cumulative IPC: 0.8671 (Simulation time: 00 hr 03 min 15 sec)
Heartbeat CPU 0 instructions: 40000000 cycles: 24700272 heartbeat IPC: 0.7884 cumulative IPC: 0.813 (Simulation time: 00 hr 05 min 46 sec)
Heartbeat CPU 0 instructions: 50000000 cycles: 32327146 heartbeat IPC: 1.311 cumulative IPC: 0.9587 (Simulation time: 00 hr 07 min 20 sec)
Simulation finished CPU 0 instructions: 25000000 cycles: 26077041 cumulative IPC: 0.9587 (Simulation time: 00 hr 07 min 20 sec)
Simulation complete CPU 0 instructions: 25000000 cycles: 26077041 cumulative IPC: 0.9587 (Simulation time: 00 hr 07 min 20 sec)

ChampSim completed all CPUs

=== Simulation ===
CPU 0 runs ./traces/omnetpp_17B.trace.xz
Region of Interest Statistics

CPU 0 cumulative IPC: 0.9587 instructions: 25000000 cycles: 26077041
CPU 0 Branch Prediction Accuracy: 96.94% MPKI: 10.14 Average ROB Occupancy at Mispredict: 35.8
Branch type MPKI
BRANCH_DIRECT_JUMP: 0.00348
BRANCH_INDIRECT: 0.0812
BRANCH_CONDITIONAL: 10
BRANCH_DIRECT_CALL: 0.0004
BRANCH_INDIRECT_CALL: 0.0034
BRANCH_RETURN: 0.0249

LLC TOTAL        ACCESS:     529378 HIT:     279991 MISS:     249387
LLC LOAD         ACCESS:     475641 HIT:     259294 MISS:     216347
LLC RFO          ACCESS:       3317 HIT:        399 MISS:       2918
LLC PREFETCH     ACCESS:          0 HIT:          0 MISS:          0
LLC WRITE        ACCESS:       3070 HIT:       2948 MISS:        122
LLC TRANSLATION  ACCESS:      47350 HIT:      17350 MISS:      30000
LLC PREFETCH REQUESTED:          0 ISSUED:          0 USEFUL:          0 USELESS:          0
LLC AVERAGE MISS LATENCY: 789.7 cycles
cpu0_DTLB TOTAL        ACCESS:    2892758 HIT:    2495602 MISS:     397156
cpu0_DTLB LOAD         ACCESS:    2892758 HIT:    2495602 MISS:     397156
cpu0_DTLB RFO          ACCESS:          0 HIT:          0 MISS:          0
cpu0_DTLB PREFETCH     ACCESS:          0 HIT:          0 MISS:          0
cpu0_DTLB WRITE        ACCESS:          0 HIT:          0 MISS:          0
cpu0_DTLB TRANSLATION  ACCESS:          0 HIT:          0 MISS:          0
cpu0_DTLB PREFETCH REQUESTED:          0 ISSUED:          0 USEFUL:          0 USELESS:          0
cpu0_DTLB AVERAGE MISS LATENCY: 104 cycles
cpu0_ITLB TOTAL        ACCESS:     153186 HIT:     151740 MISS:       1446
cpu0_ITLB LOAD         ACCESS:     153186 HIT:     151740 MISS:       1446
cpu0_ITLB RFO          ACCESS:          0 HIT:          0 MISS:          0
cpu0_ITLB PREFETCH     ACCESS:          0 HIT:          0 MISS:          0
cpu0_ITLB WRITE        ACCESS:          0 HIT:          0 MISS:          0
cpu0_ITLB TRANSLATION  ACCESS:          0 HIT:          0 MISS:          0
cpu0_ITLB PREFETCH REQUESTED:          0 ISSUED:          0 USEFUL:          0 USELESS:          0
cpu0_ITLB AVERAGE MISS LATENCY: 28.49 cycles
cpu0_L1D TOTAL        ACCESS:    3464186 HIT:    2704841 MISS:     759345
cpu0_L1D LOAD         ACCESS:    2342424 HIT:    1652570 MISS:     689854
cpu0_L1D RFO          ACCESS:          0 HIT:          0 MISS:          0
cpu0_L1D PREFETCH     ACCESS:          0 HIT:          0 MISS:          0
cpu0_L1D WRITE        ACCESS:     831171 HIT:     814846 MISS:      16325
cpu0_L1D TRANSLATION  ACCESS:     290591 HIT:     237425 MISS:      53166
cpu0_L1D PREFETCH REQUESTED:          0 ISSUED:          0 USEFUL:          0 USELESS:          0
cpu0_L1D AVERAGE MISS LATENCY: 272.6 cycles
cpu0_L1I TOTAL        ACCESS:     169484 HIT:     167880 MISS:       1604
cpu0_L1I LOAD         ACCESS:     169484 HIT:     167880 MISS:       1604
cpu0_L1I RFO          ACCESS:          0 HIT:          0 MISS:          0
cpu0_L1I PREFETCH     ACCESS:          0 HIT:          0 MISS:          0
cpu0_L1I WRITE        ACCESS:          0 HIT:          0 MISS:          0
cpu0_L1I TRANSLATION  ACCESS:          0 HIT:          0 MISS:          0
cpu0_L1I PREFETCH REQUESTED:          0 ISSUED:          0 USEFUL:          0 USELESS:          0
cpu0_L1I AVERAGE MISS LATENCY: 112.4 cycles
cpu0_L2C TOTAL        ACCESS:     536022 HIT:       9715 MISS:     526307
cpu0_L2C LOAD         ACCESS:     478642 HIT:       3002 MISS:     475640
cpu0_L2C RFO          ACCESS:       3596 HIT:        279 MISS:       3317
cpu0_L2C PREFETCH     ACCESS:          0 HIT:          0 MISS:          0
cpu0_L2C WRITE        ACCESS:       4190 HIT:       4190 MISS:          0
cpu0_L2C TRANSLATION  ACCESS:      49594 HIT:       2244 MISS:      47350
cpu0_L2C PREFETCH REQUESTED:          0 ISSUED:          0 USEFUL:          0 USELESS:          0
cpu0_L2C AVERAGE MISS LATENCY: 394.7 cycles
cpu0_STLB TOTAL        ACCESS:     292701 HIT:       4132 MISS:     288569
cpu0_STLB LOAD         ACCESS:     292701 HIT:       4132 MISS:     288569
cpu0_STLB RFO          ACCESS:          0 HIT:          0 MISS:          0
cpu0_STLB PREFETCH     ACCESS:          0 HIT:          0 MISS:          0
cpu0_STLB WRITE        ACCESS:          0 HIT:          0 MISS:          0
cpu0_STLB TRANSLATION  ACCESS:          0 HIT:          0 MISS:          0
cpu0_STLB PREFETCH REQUESTED:          0 ISSUED:          0 USEFUL:          0 USELESS:          0
cpu0_STLB AVERAGE MISS LATENCY: 140 cycles

DRAM Statistics

Channel 0 RQ ROW_BUFFER_HIT:      79970
  ROW_BUFFER_MISS:     169198
 AVG DBUS CONGESTED CYCLE: 3.857
WQ ROW_BUFFER_HIT: Channel 0 
  ROW_BUFFER_MISS:        509
  FULL:       2473
