WARNING: physical memory size is smaller than virtual memory size.

*** ChampSim Multicore Out-of-Order Simulator ***
Warmup Instructions: 25000000
Simulation Instructions: 25000000
Number of CPUs: 1
Page size: 4096

Off-chip DRAM Size: 4 GiB Channels: 1 Width: 64-bit Data Race: 800 MT/s
Heartbeat CPU 0 instructions: 10000001 cycles: 2516708 heartbeat IPC: 3.973 cumulative IPC: 3.973 (Simulation time: 00 hr 00 min 46 sec)
Heartbeat CPU 0 instructions: 20000002 cycles: 5026126 heartbeat IPC: 3.985 cumulative IPC: 3.979 (Simulation time: 00 hr 01 min 34 sec)
Warmup finished CPU 0 instructions: 25000003 cycles: 6284418 cumulative IPC: 3.978 (Simulation time: 00 hr 01 min 59 sec)
Warmup complete CPU 0 instructions: 25000003 cycles: 6284418 cumulative IPC: 3.978 (Simulation time: 00 hr 01 min 59 sec)
Heartbeat CPU 0 instructions: 30000000 cycles: 10794956 heartbeat IPC: 1.733 cumulative IPC: 1.109 (Simulation time: 00 hr 02 min 54 sec)
Heartbeat CPU 0 instructions: 40000001 cycles: 19201801 heartbeat IPC: 1.19 cumulative IPC: 1.161 (Simulation time: 00 hr 04 min 43 sec)
Heartbeat CPU 0 instructions: 50000002 cycles: 27439745 heartbeat IPC: 1.214 cumulative IPC: 1.182 (Simulation time: 00 hr 06 min 25 sec)
Simulation finished CPU 0 instructions: 25000003 cycles: 21155329 cumulative IPC: 1.182 (Simulation time: 00 hr 06 min 25 sec)
Simulation complete CPU 0 instructions: 25000003 cycles: 21155329 cumulative IPC: 1.182 (Simulation time: 00 hr 06 min 25 sec)

ChampSim completed all CPUs

=== Simulation ===
CPU 0 runs ./traces/omnetpp_4B.trace.xz
Region of Interest Statistics

CPU 0 cumulative IPC: 1.182 instructions: 25000003 cycles: 21155329
CPU 0 Branch Prediction Accuracy: 96.67% MPKI: 10.7 Average ROB Occupancy at Mispredict: 31.51
Branch type MPKI
BRANCH_DIRECT_JUMP: 0.0128
BRANCH_INDIRECT: 0.125
BRANCH_CONDITIONAL: 10.5
BRANCH_DIRECT_CALL: 0.00156
BRANCH_INDIRECT_CALL: 0.00548
BRANCH_RETURN: 0.0298

LLC TOTAL        ACCESS:     718190 HIT:     572386 MISS:     145804
LLC LOAD         ACCESS:     627876 HIT:     509690 MISS:     118186
LLC RFO          ACCESS:       9497 HIT:       4674 MISS:       4823
LLC PREFETCH     ACCESS:          0 HIT:          0 MISS:          0
LLC WRITE        ACCESS:      20967 HIT:      19542 MISS:       1425
LLC TRANSLATION  ACCESS:      59850 HIT:      38480 MISS:      21370
LLC PREFETCH REQUESTED:          0 ISSUED:          0 USEFUL:          0 USELESS:          0
LLC AVERAGE MISS LATENCY: 510 cycles
cpu0_DTLB TOTAL        ACCESS:    3430883 HIT:    2930765 MISS:     500118
cpu0_DTLB LOAD         ACCESS:    3430883 HIT:    2930765 MISS:     500118
cpu0_DTLB RFO          ACCESS:          0 HIT:          0 MISS:          0
cpu0_DTLB PREFETCH     ACCESS:          0 HIT:          0 MISS:          0
cpu0_DTLB WRITE        ACCESS:          0 HIT:          0 MISS:          0
cpu0_DTLB TRANSLATION  ACCESS:          0 HIT:          0 MISS:          0
cpu0_DTLB PREFETCH REQUESTED:          0 ISSUED:          0 USEFUL:          0 USELESS:          0
cpu0_DTLB AVERAGE MISS LATENCY: 39.67 cycles
cpu0_ITLB TOTAL        ACCESS:     265057 HIT:     247640 MISS:      17417
cpu0_ITLB LOAD         ACCESS:     265057 HIT:     247640 MISS:      17417
cpu0_ITLB RFO          ACCESS:          0 HIT:          0 MISS:          0
cpu0_ITLB PREFETCH     ACCESS:          0 HIT:          0 MISS:          0
cpu0_ITLB WRITE        ACCESS:          0 HIT:          0 MISS:          0
cpu0_ITLB TRANSLATION  ACCESS:          0 HIT:          0 MISS:          0
cpu0_ITLB PREFETCH REQUESTED:          0 ISSUED:          0 USEFUL:          0 USELESS:          0
cpu0_ITLB AVERAGE MISS LATENCY: 6.066 cycles
cpu0_L1D TOTAL        ACCESS:    4265297 HIT:    3218331 MISS:    1046966
cpu0_L1D LOAD         ACCESS:    2698812 HIT:    1772078 MISS:     926734
cpu0_L1D RFO          ACCESS:          0 HIT:          0 MISS:          0
cpu0_L1D PREFETCH     ACCESS:          0 HIT:          0 MISS:          0
cpu0_L1D WRITE        ACCESS:    1204637 HIT:    1151122 MISS:      53515
cpu0_L1D TRANSLATION  ACCESS:     361848 HIT:     295131 MISS:      66717
cpu0_L1D PREFETCH REQUESTED:          0 ISSUED:          0 USEFUL:          0 USELESS:          0
cpu0_L1D AVERAGE MISS LATENCY: 88.24 cycles
cpu0_L1I TOTAL        ACCESS:     291208 HIT:     267326 MISS:      23882
cpu0_L1I LOAD         ACCESS:     291208 HIT:     267326 MISS:      23882
cpu0_L1I RFO          ACCESS:          0 HIT:          0 MISS:          0
cpu0_L1I PREFETCH     ACCESS:          0 HIT:          0 MISS:          0
cpu0_L1I WRITE        ACCESS:          0 HIT:          0 MISS:          0
cpu0_L1I TRANSLATION  ACCESS:          0 HIT:          0 MISS:          0
cpu0_L1I PREFETCH REQUESTED:          0 ISSUED:          0 USEFUL:          0 USELESS:          0
cpu0_L1I AVERAGE MISS LATENCY: 41.92 cycles
cpu0_L2C TOTAL        ACCESS:     732819 HIT:      35594 MISS:     697225
cpu0_L2C LOAD         ACCESS:     637241 HIT:       9365 MISS:     627876
cpu0_L2C RFO          ACCESS:      10501 HIT:       1004 MISS:       9497
cpu0_L2C PREFETCH     ACCESS:          0 HIT:          0 MISS:          0
cpu0_L2C WRITE        ACCESS:      22288 HIT:      22286 MISS:          2
cpu0_L2C TRANSLATION  ACCESS:      62789 HIT:       2939 MISS:      59850
cpu0_L2C PREFETCH REQUESTED:          0 ISSUED:          0 USEFUL:          0 USELESS:          0
cpu0_L2C AVERAGE MISS LATENCY: 126.9 cycles
cpu0_STLB TOTAL        ACCESS:     365497 HIT:       5912 MISS:     359585
cpu0_STLB LOAD         ACCESS:     365497 HIT:       5912 MISS:     359585
cpu0_STLB RFO          ACCESS:          0 HIT:          0 MISS:          0
cpu0_STLB PREFETCH     ACCESS:          0 HIT:          0 MISS:          0
cpu0_STLB WRITE        ACCESS:          0 HIT:          0 MISS:          0
cpu0_STLB TRANSLATION  ACCESS:          0 HIT:          0 MISS:          0
cpu0_STLB PREFETCH REQUESTED:          0 ISSUED:          0 USEFUL:          0 USELESS:          0
cpu0_STLB AVERAGE MISS LATENCY: 48.43 cycles

DRAM Statistics

Channel 0 RQ ROW_BUFFER_HIT:      35551
  ROW_BUFFER_MISS:     108419
 AVG DBUS CONGESTED CYCLE: 3.889
WQ ROW_BUFFER_HIT: Channel 0 
  ROW_BUFFER_MISS:       1962
  FULL:      12630
