WARNING: physical memory size is smaller than virtual memory size.

*** ChampSim Multicore Out-of-Order Simulator ***
Warmup Instructions: 25000000
Simulation Instructions: 25000000
Number of CPUs: 1
Page size: 4096

Off-chip DRAM Size: 4 GiB Channels: 1 Width: 64-bit Data Race: 800 MT/s
Heartbeat CPU 0 instructions: 10000000 cycles: 2515028 heartbeat IPC: 3.976 cumulative IPC: 3.976 (Simulation time: 00 hr 01 min 05 sec)
Heartbeat CPU 0 instructions: 20000000 cycles: 5031702 heartbeat IPC: 3.973 cumulative IPC: 3.975 (Simulation time: 00 hr 02 min 17 sec)
Warmup finished CPU 0 instructions: 25000000 cycles: 6289385 cumulative IPC: 3.975 (Simulation time: 00 hr 02 min 50 sec)
Warmup complete CPU 0 instructions: 25000000 cycles: 6289385 cumulative IPC: 3.975 (Simulation time: 00 hr 02 min 50 sec)
Heartbeat CPU 0 instructions: 30000002 cycles: 22275833 heartbeat IPC: 0.5799 cumulative IPC: 0.3128 (Simulation time: 00 hr 05 min 12 sec)
Heartbeat CPU 0 instructions: 40000002 cycles: 54649179 heartbeat IPC: 0.3089 cumulative IPC: 0.3102 (Simulation time: 00 hr 10 min 02 sec)
Heartbeat CPU 0 instructions: 50000001 cycles: 83102049 heartbeat IPC: 0.3515 cumulative IPC: 0.3255 (Simulation time: 00 hr 14 min 11 sec)
Simulation finished CPU 0 instructions: 25000001 cycles: 76812665 cumulative IPC: 0.3255 (Simulation time: 00 hr 14 min 11 sec)
Simulation complete CPU 0 instructions: 25000001 cycles: 76812665 cumulative IPC: 0.3255 (Simulation time: 00 hr 14 min 11 sec)

ChampSim completed all CPUs

=== Simulation ===
CPU 0 runs ./traces/omnetpp_340B.trace.xz
Region of Interest Statistics

CPU 0 cumulative IPC: 0.3255 instructions: 25000001 cycles: 76812665
CPU 0 Branch Prediction Accuracy: 92.7% MPKI: 17.4 Average ROB Occupancy at Mispredict: 51.58
Branch type MPKI
BRANCH_DIRECT_JUMP: 0.00016
BRANCH_INDIRECT: 0.0548
BRANCH_CONDITIONAL: 17.3
BRANCH_DIRECT_CALL: 4e-05
BRANCH_INDIRECT_CALL: 0.063
BRANCH_RETURN: 0.0296

LLC TOTAL        ACCESS:     859582 HIT:     374445 MISS:     485137
LLC LOAD         ACCESS:     475322 HIT:     109027 MISS:     366295
LLC RFO          ACCESS:      76760 HIT:      13123 MISS:      63637
LLC PREFETCH     ACCESS:          0 HIT:          0 MISS:          0
LLC WRITE        ACCESS:     232670 HIT:     230866 MISS:       1804
LLC TRANSLATION  ACCESS:      74830 HIT:      21429 MISS:      53401
LLC PREFETCH REQUESTED:          0 ISSUED:          0 USEFUL:          0 USELESS:          0
LLC AVERAGE MISS LATENCY: 346.5 cycles
cpu0_DTLB TOTAL        ACCESS:    7693518 HIT:    7053280 MISS:     640238
cpu0_DTLB LOAD         ACCESS:    7693518 HIT:    7053280 MISS:     640238
cpu0_DTLB RFO          ACCESS:          0 HIT:          0 MISS:          0
cpu0_DTLB PREFETCH     ACCESS:          0 HIT:          0 MISS:          0
cpu0_DTLB WRITE        ACCESS:          0 HIT:          0 MISS:          0
cpu0_DTLB TRANSLATION  ACCESS:          0 HIT:          0 MISS:          0
cpu0_DTLB PREFETCH REQUESTED:          0 ISSUED:          0 USEFUL:          0 USELESS:          0
cpu0_DTLB AVERAGE MISS LATENCY: 42.84 cycles
cpu0_ITLB TOTAL        ACCESS:    1067598 HIT:    1065622 MISS:       1976
cpu0_ITLB LOAD         ACCESS:    1067598 HIT:    1065622 MISS:       1976
cpu0_ITLB RFO          ACCESS:          0 HIT:          0 MISS:          0
cpu0_ITLB PREFETCH     ACCESS:          0 HIT:          0 MISS:          0
cpu0_ITLB WRITE        ACCESS:          0 HIT:          0 MISS:          0
cpu0_ITLB TRANSLATION  ACCESS:          0 HIT:          0 MISS:          0
cpu0_ITLB PREFETCH REQUESTED:          0 ISSUED:          0 USEFUL:          0 USELESS:          0
cpu0_ITLB AVERAGE MISS LATENCY: 27.97 cycles
cpu0_L1D TOTAL        ACCESS:    9536502 HIT:    8091824 MISS:    1444678
cpu0_L1D LOAD         ACCESS:    5153179 HIT:    4263171 MISS:     890008
cpu0_L1D RFO          ACCESS:          0 HIT:          0 MISS:          0
cpu0_L1D PREFETCH     ACCESS:          0 HIT:          0 MISS:          0
cpu0_L1D WRITE        ACCESS:    4264684 HIT:    3818198 MISS:     446486
cpu0_L1D TRANSLATION  ACCESS:     118639 HIT:      10455 MISS:     108184
cpu0_L1D PREFETCH REQUESTED:          0 ISSUED:          0 USEFUL:          0 USELESS:          0
cpu0_L1D AVERAGE MISS LATENCY: 127.1 cycles
cpu0_L1I TOTAL        ACCESS:    1148610 HIT:    1145892 MISS:       2718
cpu0_L1I LOAD         ACCESS:    1148610 HIT:    1145892 MISS:       2718
cpu0_L1I RFO          ACCESS:          0 HIT:          0 MISS:          0
cpu0_L1I PREFETCH     ACCESS:          0 HIT:          0 MISS:          0
cpu0_L1I WRITE        ACCESS:          0 HIT:          0 MISS:          0
cpu0_L1I TRANSLATION  ACCESS:          0 HIT:          0 MISS:          0
cpu0_L1I PREFETCH REQUESTED:          0 ISSUED:          0 USEFUL:          0 USELESS:          0
cpu0_L1I AVERAGE MISS LATENCY: 62.98 cycles
cpu0_L2C TOTAL        ACCESS:    1032966 HIT:     404840 MISS:     628126
cpu0_L2C LOAD         ACCESS:     565272 HIT:      89949 MISS:     475323
cpu0_L2C RFO          ACCESS:      86194 HIT:       9434 MISS:      76760
cpu0_L2C PREFETCH     ACCESS:          0 HIT:          0 MISS:          0
cpu0_L2C WRITE        ACCESS:     273621 HIT:     272408 MISS:       1213
cpu0_L2C TRANSLATION  ACCESS:     107879 HIT:      33049 MISS:      74830
cpu0_L2C PREFETCH REQUESTED:          0 ISSUED:          0 USEFUL:          0 USELESS:          0
cpu0_L2C AVERAGE MISS LATENCY: 288.3 cycles
cpu0_STLB TOTAL        ACCESS:     456156 HIT:     342395 MISS:     113761
cpu0_STLB LOAD         ACCESS:     456156 HIT:     342395 MISS:     113761
cpu0_STLB RFO          ACCESS:          0 HIT:          0 MISS:          0
cpu0_STLB PREFETCH     ACCESS:          0 HIT:          0 MISS:          0
cpu0_STLB WRITE        ACCESS:          0 HIT:          0 MISS:          0
cpu0_STLB TRANSLATION  ACCESS:          0 HIT:          0 MISS:          0
cpu0_STLB PREFETCH REQUESTED:          0 ISSUED:          0 USEFUL:          0 USELESS:          0
cpu0_STLB AVERAGE MISS LATENCY: 219.9 cycles

DRAM Statistics

Channel 0 RQ ROW_BUFFER_HIT:      46718
  ROW_BUFFER_MISS:     436333
 AVG DBUS CONGESTED CYCLE: 3.945
WQ ROW_BUFFER_HIT: Channel 0 
  ROW_BUFFER_MISS:       2406
  FULL:     176846
