WARNING: physical memory size is smaller than virtual memory size.

*** ChampSim Multicore Out-of-Order Simulator ***
Warmup Instructions: 25000000
Simulation Instructions: 25000000
Number of CPUs: 1
Page size: 4096

Off-chip DRAM Size: 4 GiB Channels: 1 Width: 64-bit Data Race: 800 MT/s
Heartbeat CPU 0 instructions: 10000002 cycles: 2581734 heartbeat IPC: 3.873 cumulative IPC: 3.873 (Simulation time: 00 hr 00 min 42 sec)
Heartbeat CPU 0 instructions: 20000001 cycles: 5433332 heartbeat IPC: 3.507 cumulative IPC: 3.681 (Simulation time: 00 hr 01 min 27 sec)
Warmup finished CPU 0 instructions: 25000003 cycles: 6683336 cumulative IPC: 3.741 (Simulation time: 00 hr 01 min 51 sec)
Warmup complete CPU 0 instructions: 25000003 cycles: 6683336 cumulative IPC: 3.741 (Simulation time: 00 hr 01 min 51 sec)
Heartbeat CPU 0 instructions: 30000002 cycles: 15910649 heartbeat IPC: 0.9544 cumulative IPC: 0.5419 (Simulation time: 00 hr 03 min 11 sec)
Heartbeat CPU 0 instructions: 40000003 cycles: 51645900 heartbeat IPC: 0.2798 cumulative IPC: 0.3336 (Simulation time: 00 hr 07 min 47 sec)
Heartbeat CPU 0 instructions: 50000002 cycles: 94387381 heartbeat IPC: 0.234 cumulative IPC: 0.285 (Simulation time: 00 hr 12 min 12 sec)
Simulation finished CPU 0 instructions: 25000003 cycles: 87704047 cumulative IPC: 0.285 (Simulation time: 00 hr 12 min 12 sec)
Simulation complete CPU 0 instructions: 25000003 cycles: 87704047 cumulative IPC: 0.285 (Simulation time: 00 hr 12 min 12 sec)

ChampSim completed all CPUs

=== Simulation ===
CPU 0 runs ./traces/soplex_205B.trace.xz
Region of Interest Statistics

CPU 0 cumulative IPC: 0.285 instructions: 25000003 cycles: 87704047
CPU 0 Branch Prediction Accuracy: 94.47% MPKI: 11.02 Average ROB Occupancy at Mispredict: 71.75
Branch type MPKI
BRANCH_DIRECT_JUMP: 0.0298
BRANCH_INDIRECT: 0.0002
BRANCH_CONDITIONAL: 11
BRANCH_DIRECT_CALL: 0.00172
BRANCH_INDIRECT_CALL: 0.00096
BRANCH_RETURN: 0.00272

LLC TOTAL        ACCESS:    2167318 HIT:    1215243 MISS:     952075
LLC LOAD         ACCESS:     615533 HIT:     282226 MISS:     333307
LLC RFO          ACCESS:     219232 HIT:      83454 MISS:     135778
LLC PREFETCH     ACCESS:     765320 HIT:     289824 MISS:     475496
LLC WRITE        ACCESS:     558111 HIT:     555989 MISS:       2122
LLC TRANSLATION  ACCESS:       9122 HIT:       3750 MISS:       5372
LLC PREFETCH REQUESTED:          0 ISSUED:          0 USEFUL:          0 USELESS:          0
LLC AVERAGE MISS LATENCY: 954.5 cycles
cpu0_DTLB TOTAL        ACCESS:    6183921 HIT:    5784403 MISS:     399518
cpu0_DTLB LOAD         ACCESS:    6183921 HIT:    5784403 MISS:     399518
cpu0_DTLB RFO          ACCESS:          0 HIT:          0 MISS:          0
cpu0_DTLB PREFETCH     ACCESS:          0 HIT:          0 MISS:          0
cpu0_DTLB WRITE        ACCESS:          0 HIT:          0 MISS:          0
cpu0_DTLB TRANSLATION  ACCESS:          0 HIT:          0 MISS:          0
cpu0_DTLB PREFETCH REQUESTED:          0 ISSUED:          0 USEFUL:          0 USELESS:          0
cpu0_DTLB AVERAGE MISS LATENCY: 19.25 cycles
cpu0_ITLB TOTAL        ACCESS:       3183 HIT:       3151 MISS:         32
cpu0_ITLB LOAD         ACCESS:       3183 HIT:       3151 MISS:         32
cpu0_ITLB RFO          ACCESS:          0 HIT:          0 MISS:          0
cpu0_ITLB PREFETCH     ACCESS:          0 HIT:          0 MISS:          0
cpu0_ITLB WRITE        ACCESS:          0 HIT:          0 MISS:          0
cpu0_ITLB TRANSLATION  ACCESS:          0 HIT:          0 MISS:          0
cpu0_ITLB PREFETCH REQUESTED:          0 ISSUED:          0 USEFUL:          0 USELESS:          0
cpu0_ITLB AVERAGE MISS LATENCY: 199.7 cycles
cpu0_L1D TOTAL        ACCESS:   10949483 HIT:    6555209 MISS:    4394274
cpu0_L1D LOAD         ACCESS:    5112384 HIT:    3083278 MISS:    2029106
cpu0_L1D RFO          ACCESS:          0 HIT:          0 MISS:          0
cpu0_L1D PREFETCH     ACCESS:    3722060 HIT:    2015499 MISS:    1706561
cpu0_L1D WRITE        ACCESS:    2096199 HIT:    1452069 MISS:     644130
cpu0_L1D TRANSLATION  ACCESS:      18840 HIT:       4363 MISS:      14477
cpu0_L1D PREFETCH REQUESTED:   20090522 ISSUED:    3722052 USEFUL:     265391 USELESS:     429466
cpu0_L1D AVERAGE MISS LATENCY: 182.7 cycles
cpu0_L1I TOTAL        ACCESS:       3642 HIT:       2851 MISS:        791
cpu0_L1I LOAD         ACCESS:       3642 HIT:       2851 MISS:        791
cpu0_L1I RFO          ACCESS:          0 HIT:          0 MISS:          0
cpu0_L1I PREFETCH     ACCESS:          0 HIT:          0 MISS:          0
cpu0_L1I WRITE        ACCESS:          0 HIT:          0 MISS:          0
cpu0_L1I TRANSLATION  ACCESS:          0 HIT:          0 MISS:          0
cpu0_L1I PREFETCH REQUESTED:          0 ISSUED:          0 USEFUL:          0 USELESS:          0
cpu0_L1I AVERAGE MISS LATENCY: 338.3 cycles
cpu0_L2C TOTAL        ACCESS:    3474703 HIT:    1618490 MISS:    1856213
cpu0_L2C LOAD         ACCESS:    1042576 HIT:     382216 MISS:     660360
cpu0_L2C RFO          ACCESS:     261961 HIT:      42729 MISS:     219232
cpu0_L2C PREFETCH     ACCESS:    1396252 HIT:     428845 MISS:     967407
cpu0_L2C WRITE        ACCESS:     759605 HIT:     759513 MISS:         92
cpu0_L2C TRANSLATION  ACCESS:      14309 HIT:       5187 MISS:       9122
cpu0_L2C PREFETCH REQUESTED:     704076 ISSUED:     701356 USEFUL:     162180 USELESS:      50068
cpu0_L2C AVERAGE MISS LATENCY: 472.3 cycles
cpu0_STLB TOTAL        ACCESS:     276617 HIT:     257831 MISS:      18786
cpu0_STLB LOAD         ACCESS:     276617 HIT:     257831 MISS:      18786
cpu0_STLB RFO          ACCESS:          0 HIT:          0 MISS:          0
cpu0_STLB PREFETCH     ACCESS:          0 HIT:          0 MISS:          0
cpu0_STLB WRITE        ACCESS:          0 HIT:          0 MISS:          0
cpu0_STLB TRANSLATION  ACCESS:          0 HIT:          0 MISS:          0
cpu0_STLB PREFETCH REQUESTED:          0 ISSUED:          0 USEFUL:          0 USELESS:          0
cpu0_STLB AVERAGE MISS LATENCY: 413.1 cycles

DRAM Statistics

Channel 0 RQ ROW_BUFFER_HIT:     273850
  ROW_BUFFER_MISS:     585438
 AVG DBUS CONGESTED CYCLE: 3.941
WQ ROW_BUFFER_HIT: Channel 0 
  ROW_BUFFER_MISS:       8230
  FULL:     318064
