WARNING: physical memory size is smaller than virtual memory size.

*** ChampSim Multicore Out-of-Order Simulator ***
Warmup Instructions: 25000000
Simulation Instructions: 25000000
Number of CPUs: 1
Page size: 4096

Off-chip DRAM Size: 4 GiB Channels: 1 Width: 64-bit Data Race: 800 MT/s
Heartbeat CPU 0 instructions: 10000000 cycles: 2576369 heartbeat IPC: 3.881 cumulative IPC: 3.881 (Simulation time: 00 hr 00 min 50 sec)
Heartbeat CPU 0 instructions: 20000001 cycles: 5125006 heartbeat IPC: 3.924 cumulative IPC: 3.902 (Simulation time: 00 hr 01 min 44 sec)
Warmup finished CPU 0 instructions: 25000001 cycles: 6425252 cumulative IPC: 3.891 (Simulation time: 00 hr 02 min 12 sec)
Warmup complete CPU 0 instructions: 25000001 cycles: 6425252 cumulative IPC: 3.891 (Simulation time: 00 hr 02 min 12 sec)
Heartbeat CPU 0 instructions: 30000002 cycles: 27150481 heartbeat IPC: 0.454 cumulative IPC: 0.2413 (Simulation time: 00 hr 05 min 16 sec)
Heartbeat CPU 0 instructions: 40000001 cycles: 69161378 heartbeat IPC: 0.238 cumulative IPC: 0.2391 (Simulation time: 00 hr 11 min 19 sec)
Heartbeat CPU 0 instructions: 50000002 cycles: 110074007 heartbeat IPC: 0.2444 cumulative IPC: 0.2412 (Simulation time: 00 hr 15 min 19 sec)
Simulation finished CPU 0 instructions: 25000001 cycles: 103648756 cumulative IPC: 0.2412 (Simulation time: 00 hr 15 min 19 sec)
Simulation complete CPU 0 instructions: 25000001 cycles: 103648756 cumulative IPC: 0.2412 (Simulation time: 00 hr 15 min 19 sec)

ChampSim completed all CPUs

=== Simulation ===
CPU 0 runs ./traces/soplex_217B.trace.xz
Region of Interest Statistics

CPU 0 cumulative IPC: 0.2412 instructions: 25000001 cycles: 103648756
CPU 0 Branch Prediction Accuracy: 95.1% MPKI: 11 Average ROB Occupancy at Mispredict: 64.23
Branch type MPKI
BRANCH_DIRECT_JUMP: 0.0653
BRANCH_INDIRECT: 0.00024
BRANCH_CONDITIONAL: 10.9
BRANCH_DIRECT_CALL: 4e-05
BRANCH_INDIRECT_CALL: 0.00044
BRANCH_RETURN: 0.00048

LLC TOTAL        ACCESS:    1745403 HIT:     876222 MISS:     869181
LLC LOAD         ACCESS:    1079881 HIT:     324474 MISS:     755407
LLC RFO          ACCESS:     143078 HIT:      38806 MISS:     104272
LLC PREFETCH     ACCESS:          0 HIT:          0 MISS:          0
LLC WRITE        ACCESS:     509421 HIT:     507213 MISS:       2208
LLC TRANSLATION  ACCESS:      13023 HIT:       5729 MISS:       7294
LLC PREFETCH REQUESTED:          0 ISSUED:          0 USEFUL:          0 USELESS:          0
LLC AVERAGE MISS LATENCY: 842.3 cycles
cpu0_DTLB TOTAL        ACCESS:    5521492 HIT:    5214339 MISS:     307153
cpu0_DTLB LOAD         ACCESS:    5521492 HIT:    5214339 MISS:     307153
cpu0_DTLB RFO          ACCESS:          0 HIT:          0 MISS:          0
cpu0_DTLB PREFETCH     ACCESS:          0 HIT:          0 MISS:          0
cpu0_DTLB WRITE        ACCESS:          0 HIT:          0 MISS:          0
cpu0_DTLB TRANSLATION  ACCESS:          0 HIT:          0 MISS:          0
cpu0_DTLB PREFETCH REQUESTED:          0 ISSUED:          0 USEFUL:          0 USELESS:          0
cpu0_DTLB AVERAGE MISS LATENCY: 24.79 cycles
cpu0_ITLB TOTAL        ACCESS:       1644 HIT:       1644 MISS:          0
cpu0_ITLB LOAD         ACCESS:       1644 HIT:       1644 MISS:          0
cpu0_ITLB RFO          ACCESS:          0 HIT:          0 MISS:          0
cpu0_ITLB PREFETCH     ACCESS:          0 HIT:          0 MISS:          0
cpu0_ITLB WRITE        ACCESS:          0 HIT:          0 MISS:          0
cpu0_ITLB TRANSLATION  ACCESS:          0 HIT:          0 MISS:          0
cpu0_ITLB PREFETCH REQUESTED:          0 ISSUED:          0 USEFUL:          0 USELESS:          0
cpu0_ITLB AVERAGE MISS LATENCY: -nan cycles
cpu0_L1D TOTAL        ACCESS:    6281885 HIT:    2975606 MISS:    3306279
cpu0_L1D LOAD         ACCESS:    4762105 HIT:    1898308 MISS:    2863797
cpu0_L1D RFO          ACCESS:          0 HIT:          0 MISS:          0
cpu0_L1D PREFETCH     ACCESS:          0 HIT:          0 MISS:          0
cpu0_L1D WRITE        ACCESS:    1493604 HIT:    1071294 MISS:     422310
cpu0_L1D TRANSLATION  ACCESS:      26176 HIT:       6004 MISS:      20172
cpu0_L1D PREFETCH REQUESTED:          0 ISSUED:          0 USEFUL:          0 USELESS:          0
cpu0_L1D AVERAGE MISS LATENCY: 228.3 cycles
cpu0_L1I TOTAL        ACCESS:       1962 HIT:       1905 MISS:         57
cpu0_L1I LOAD         ACCESS:       1962 HIT:       1905 MISS:         57
cpu0_L1I RFO          ACCESS:          0 HIT:          0 MISS:          0
cpu0_L1I PREFETCH     ACCESS:          0 HIT:          0 MISS:          0
cpu0_L1I WRITE        ACCESS:          0 HIT:          0 MISS:          0
cpu0_L1I TRANSLATION  ACCESS:          0 HIT:          0 MISS:          0
cpu0_L1I PREFETCH REQUESTED:          0 ISSUED:          0 USEFUL:          0 USELESS:          0
cpu0_L1I AVERAGE MISS LATENCY: 313.6 cycles
cpu0_L2C TOTAL        ACCESS:    2223485 HIT:     987478 MISS:    1236007
cpu0_L2C LOAD         ACCESS:    1351110 HIT:     271229 MISS:    1079881
cpu0_L2C RFO          ACCESS:     158745 HIT:      15667 MISS:     143078
cpu0_L2C PREFETCH     ACCESS:          0 HIT:          0 MISS:          0
cpu0_L2C WRITE        ACCESS:     693642 HIT:     693617 MISS:         25
cpu0_L2C TRANSLATION  ACCESS:      19988 HIT:       6965 MISS:      13023
cpu0_L2C PREFETCH REQUESTED:          0 ISSUED:          0 USEFUL:          0 USELESS:          0
cpu0_L2C AVERAGE MISS LATENCY: 613 cycles
cpu0_STLB TOTAL        ACCESS:     157847 HIT:     131807 MISS:      26040
cpu0_STLB LOAD         ACCESS:     157847 HIT:     131807 MISS:      26040
cpu0_STLB RFO          ACCESS:          0 HIT:          0 MISS:          0
cpu0_STLB PREFETCH     ACCESS:          0 HIT:          0 MISS:          0
cpu0_STLB WRITE        ACCESS:          0 HIT:          0 MISS:          0
cpu0_STLB TRANSLATION  ACCESS:          0 HIT:          0 MISS:          0
cpu0_STLB PREFETCH REQUESTED:          0 ISSUED:          0 USEFUL:          0 USELESS:          0
cpu0_STLB AVERAGE MISS LATENCY: 332.3 cycles

DRAM Statistics

Channel 0 RQ ROW_BUFFER_HIT:     235257
  ROW_BUFFER_MISS:     631333
 AVG DBUS CONGESTED CYCLE: 3.939
WQ ROW_BUFFER_HIT: Channel 0 
  ROW_BUFFER_MISS:      19400
  FULL:     318571
