WARNING: physical memory size is smaller than virtual memory size.

*** ChampSim Multicore Out-of-Order Simulator ***
Warmup Instructions: 25000000
Simulation Instructions: 25000000
Number of CPUs: 1
Page size: 4096

Off-chip DRAM Size: 4 GiB Channels: 1 Width: 64-bit Data Race: 800 MT/s
Heartbeat CPU 0 instructions: 10000002 cycles: 2577978 heartbeat IPC: 3.879 cumulative IPC: 3.879 (Simulation time: 00 hr 00 min 57 sec)
Heartbeat CPU 0 instructions: 20000001 cycles: 5426113 heartbeat IPC: 3.511 cumulative IPC: 3.686 (Simulation time: 00 hr 02 min 01 sec)
Warmup finished CPU 0 instructions: 25000001 cycles: 6676114 cumulative IPC: 3.745 (Simulation time: 00 hr 02 min 34 sec)
Warmup complete CPU 0 instructions: 25000001 cycles: 6676114 cumulative IPC: 3.745 (Simulation time: 00 hr 02 min 34 sec)
Heartbeat CPU 0 instructions: 30000002 cycles: 16368325 heartbeat IPC: 0.9139 cumulative IPC: 0.5159 (Simulation time: 00 hr 04 min 14 sec)
Heartbeat CPU 0 instructions: 40000003 cycles: 54372415 heartbeat IPC: 0.2631 cumulative IPC: 0.3145 (Simulation time: 00 hr 10 min 04 sec)
Heartbeat CPU 0 instructions: 50000002 cycles: 97403826 heartbeat IPC: 0.2324 cumulative IPC: 0.2755 (Simulation time: 00 hr 15 min 20 sec)
Simulation finished CPU 0 instructions: 25000001 cycles: 90727713 cumulative IPC: 0.2755 (Simulation time: 00 hr 15 min 20 sec)
Simulation complete CPU 0 instructions: 25000001 cycles: 90727713 cumulative IPC: 0.2755 (Simulation time: 00 hr 15 min 20 sec)

ChampSim completed all CPUs

=== Simulation ===
CPU 0 runs ./traces/soplex_205B.trace.xz
Region of Interest Statistics

CPU 0 cumulative IPC: 0.2755 instructions: 25000001 cycles: 90727713
CPU 0 Branch Prediction Accuracy: 94.47% MPKI: 11.02 Average ROB Occupancy at Mispredict: 67.3
Branch type MPKI
BRANCH_DIRECT_JUMP: 0.0298
BRANCH_INDIRECT: 0.0002
BRANCH_CONDITIONAL: 11
BRANCH_DIRECT_CALL: 0.00172
BRANCH_INDIRECT_CALL: 0.00096
BRANCH_RETURN: 0.00272

LLC TOTAL        ACCESS:    1724422 HIT:    1004258 MISS:     720164
LLC LOAD         ACCESS:     962675 HIT:     380672 MISS:     582003
LLC RFO          ACCESS:     214542 HIT:      83158 MISS:     131384
LLC PREFETCH     ACCESS:          0 HIT:          0 MISS:          0
LLC WRITE        ACCESS:     538482 HIT:     536904 MISS:       1578
LLC TRANSLATION  ACCESS:       8723 HIT:       3524 MISS:       5199
LLC PREFETCH REQUESTED:          0 ISSUED:          0 USEFUL:          0 USELESS:          0
LLC AVERAGE MISS LATENCY: 857.5 cycles
cpu0_DTLB TOTAL        ACCESS:    6290413 HIT:    5887782 MISS:     402631
cpu0_DTLB LOAD         ACCESS:    6290413 HIT:    5887782 MISS:     402631
cpu0_DTLB RFO          ACCESS:          0 HIT:          0 MISS:          0
cpu0_DTLB PREFETCH     ACCESS:          0 HIT:          0 MISS:          0
cpu0_DTLB WRITE        ACCESS:          0 HIT:          0 MISS:          0
cpu0_DTLB TRANSLATION  ACCESS:          0 HIT:          0 MISS:          0
cpu0_DTLB PREFETCH REQUESTED:          0 ISSUED:          0 USEFUL:          0 USELESS:          0
cpu0_DTLB AVERAGE MISS LATENCY: 16.63 cycles
cpu0_ITLB TOTAL        ACCESS:       3181 HIT:       3149 MISS:         32
cpu0_ITLB LOAD         ACCESS:       3181 HIT:       3149 MISS:         32
cpu0_ITLB RFO          ACCESS:          0 HIT:          0 MISS:          0
cpu0_ITLB PREFETCH     ACCESS:          0 HIT:          0 MISS:          0
cpu0_ITLB WRITE        ACCESS:          0 HIT:          0 MISS:          0
cpu0_ITLB TRANSLATION  ACCESS:          0 HIT:          0 MISS:          0
cpu0_ITLB PREFETCH REQUESTED:          0 ISSUED:          0 USEFUL:          0 USELESS:          0
cpu0_ITLB AVERAGE MISS LATENCY: 184.1 cycles
cpu0_L1D TOTAL        ACCESS:    7367282 HIT:    3982664 MISS:    3384618
cpu0_L1D LOAD         ACCESS:    5251904 HIT:    2503528 MISS:    2748376
cpu0_L1D RFO          ACCESS:          0 HIT:          0 MISS:          0
cpu0_L1D PREFETCH     ACCESS:          0 HIT:          0 MISS:          0
cpu0_L1D WRITE        ACCESS:    2096528 HIT:    1474198 MISS:     622330
cpu0_L1D TRANSLATION  ACCESS:      18850 HIT:       4938 MISS:      13912
cpu0_L1D PREFETCH REQUESTED:          0 ISSUED:          0 USEFUL:          0 USELESS:          0
cpu0_L1D AVERAGE MISS LATENCY: 186.8 cycles
cpu0_L1I TOTAL        ACCESS:       3640 HIT:       2854 MISS:        786
cpu0_L1I LOAD         ACCESS:       3640 HIT:       2854 MISS:        786
cpu0_L1I RFO          ACCESS:          0 HIT:          0 MISS:          0
cpu0_L1I PREFETCH     ACCESS:          0 HIT:          0 MISS:          0
cpu0_L1I WRITE        ACCESS:          0 HIT:          0 MISS:          0
cpu0_L1I TRANSLATION  ACCESS:          0 HIT:          0 MISS:          0
cpu0_L1I PREFETCH REQUESTED:          0 ISSUED:          0 USEFUL:          0 USELESS:          0
cpu0_L1I AVERAGE MISS LATENCY: 303.9 cycles
cpu0_L2C TOTAL        ACCESS:    2280526 HIT:    1094511 MISS:    1186015
cpu0_L2C LOAD         ACCESS:    1271390 HIT:     308715 MISS:     962675
cpu0_L2C RFO          ACCESS:     259512 HIT:      44969 MISS:     214543
cpu0_L2C PREFETCH     ACCESS:          0 HIT:          0 MISS:          0
cpu0_L2C WRITE        ACCESS:     735873 HIT:     735799 MISS:         74
cpu0_L2C TRANSLATION  ACCESS:      13751 HIT:       5028 MISS:       8723
cpu0_L2C PREFETCH REQUESTED:          0 ISSUED:          0 USEFUL:          0 USELESS:          0
cpu0_L2C AVERAGE MISS LATENCY: 541.3 cycles
cpu0_STLB TOTAL        ACCESS:     276708 HIT:     257921 MISS:      18787
cpu0_STLB LOAD         ACCESS:     276708 HIT:     257921 MISS:      18787
cpu0_STLB RFO          ACCESS:          0 HIT:          0 MISS:          0
cpu0_STLB PREFETCH     ACCESS:          0 HIT:          0 MISS:          0
cpu0_STLB WRITE        ACCESS:          0 HIT:          0 MISS:          0
cpu0_STLB TRANSLATION  ACCESS:          0 HIT:          0 MISS:          0
cpu0_STLB PREFETCH REQUESTED:          0 ISSUED:          0 USEFUL:          0 USELESS:          0
cpu0_STLB AVERAGE MISS LATENCY: 338.4 cycles

DRAM Statistics

Channel 0 RQ ROW_BUFFER_HIT:     193923
  ROW_BUFFER_MISS:     524236
 AVG DBUS CONGESTED CYCLE: 3.95
WQ ROW_BUFFER_HIT: Channel 0 
  ROW_BUFFER_MISS:      11340
  FULL:     301246
