WARNING: physical memory size is smaller than virtual memory size.

*** ChampSim Multicore Out-of-Order Simulator ***
Warmup Instructions: 25000000
Simulation Instructions: 25000000
Number of CPUs: 1
Page size: 4096

Off-chip DRAM Size: 4 GiB Channels: 1 Width: 64-bit Data Race: 800 MT/s
Heartbeat CPU 0 instructions: 10000000 cycles: 2578346 heartbeat IPC: 3.878 cumulative IPC: 3.878 (Simulation time: 00 hr 00 min 51 sec)
Heartbeat CPU 0 instructions: 20000003 cycles: 5129502 heartbeat IPC: 3.92 cumulative IPC: 3.899 (Simulation time: 00 hr 01 min 43 sec)
Warmup finished CPU 0 instructions: 25000001 cycles: 6414642 cumulative IPC: 3.897 (Simulation time: 00 hr 02 min 11 sec)
Warmup complete CPU 0 instructions: 25000001 cycles: 6414642 cumulative IPC: 3.897 (Simulation time: 00 hr 02 min 11 sec)
Heartbeat CPU 0 instructions: 30000003 cycles: 23084469 heartbeat IPC: 0.5569 cumulative IPC: 0.2999 (Simulation time: 00 hr 04 min 41 sec)
Heartbeat CPU 0 instructions: 40000000 cycles: 54622374 heartbeat IPC: 0.3171 cumulative IPC: 0.3112 (Simulation time: 00 hr 09 min 29 sec)
Heartbeat CPU 0 instructions: 50000000 cycles: 96768802 heartbeat IPC: 0.2373 cumulative IPC: 0.2767 (Simulation time: 00 hr 14 min 12 sec)
Simulation finished CPU 0 instructions: 25000003 cycles: 90354162 cumulative IPC: 0.2767 (Simulation time: 00 hr 14 min 12 sec)
Simulation complete CPU 0 instructions: 25000003 cycles: 90354162 cumulative IPC: 0.2767 (Simulation time: 00 hr 14 min 12 sec)

ChampSim completed all CPUs

=== Simulation ===
CPU 0 runs ./traces/soplex_66B.trace.xz
Region of Interest Statistics

CPU 0 cumulative IPC: 0.2767 instructions: 25000003 cycles: 90354162
CPU 0 Branch Prediction Accuracy: 92.78% MPKI: 16.43 Average ROB Occupancy at Mispredict: 27.92
Branch type MPKI
BRANCH_DIRECT_JUMP: 0.0549
BRANCH_INDIRECT: 0.00028
BRANCH_CONDITIONAL: 16.4
BRANCH_DIRECT_CALL: 0.0006
BRANCH_INDIRECT_CALL: 0.00036
BRANCH_RETURN: 0.0012

LLC TOTAL        ACCESS:    1318232 HIT:     611659 MISS:     706573
LLC LOAD         ACCESS:     824911 HIT:     228388 MISS:     596523
LLC RFO          ACCESS:     132084 HIT:      30617 MISS:     101467
LLC PREFETCH     ACCESS:          0 HIT:          0 MISS:          0
LLC WRITE        ACCESS:     347319 HIT:     345231 MISS:       2088
LLC TRANSLATION  ACCESS:      13918 HIT:       7423 MISS:       6495
LLC PREFETCH REQUESTED:          0 ISSUED:          0 USEFUL:          0 USELESS:          0
LLC AVERAGE MISS LATENCY: 814.2 cycles
cpu0_DTLB TOTAL        ACCESS:    5223083 HIT:    4994529 MISS:     228554
cpu0_DTLB LOAD         ACCESS:    5223083 HIT:    4994529 MISS:     228554
cpu0_DTLB RFO          ACCESS:          0 HIT:          0 MISS:          0
cpu0_DTLB PREFETCH     ACCESS:          0 HIT:          0 MISS:          0
cpu0_DTLB WRITE        ACCESS:          0 HIT:          0 MISS:          0
cpu0_DTLB TRANSLATION  ACCESS:          0 HIT:          0 MISS:          0
cpu0_DTLB PREFETCH REQUESTED:          0 ISSUED:          0 USEFUL:          0 USELESS:          0
cpu0_DTLB AVERAGE MISS LATENCY: 31.42 cycles
cpu0_ITLB TOTAL        ACCESS:       1914 HIT:       1898 MISS:         16
cpu0_ITLB LOAD         ACCESS:       1914 HIT:       1898 MISS:         16
cpu0_ITLB RFO          ACCESS:          0 HIT:          0 MISS:          0
cpu0_ITLB PREFETCH     ACCESS:          0 HIT:          0 MISS:          0
cpu0_ITLB WRITE        ACCESS:          0 HIT:          0 MISS:          0
cpu0_ITLB TRANSLATION  ACCESS:          0 HIT:          0 MISS:          0
cpu0_ITLB PREFETCH REQUESTED:          0 ISSUED:          0 USEFUL:          0 USELESS:          0
cpu0_ITLB AVERAGE MISS LATENCY: 588.4 cycles
cpu0_L1D TOTAL        ACCESS:    6010713 HIT:    3309231 MISS:    2701482
cpu0_L1D LOAD         ACCESS:    4184149 HIT:    2137553 MISS:    2046596
cpu0_L1D RFO          ACCESS:          0 HIT:          0 MISS:          0
cpu0_L1D PREFETCH     ACCESS:          0 HIT:          0 MISS:          0
cpu0_L1D WRITE        ACCESS:    1794803 HIT:    1162393 MISS:     632410
cpu0_L1D TRANSLATION  ACCESS:      31761 HIT:       9285 MISS:      22476
cpu0_L1D PREFETCH REQUESTED:          0 ISSUED:          0 USEFUL:          0 USELESS:          0
cpu0_L1D AVERAGE MISS LATENCY: 217.7 cycles
cpu0_L1I TOTAL        ACCESS:       2237 HIT:       1943 MISS:        294
cpu0_L1I LOAD         ACCESS:       2237 HIT:       1943 MISS:        294
cpu0_L1I RFO          ACCESS:          0 HIT:          0 MISS:          0
cpu0_L1I PREFETCH     ACCESS:          0 HIT:          0 MISS:          0
cpu0_L1I WRITE        ACCESS:          0 HIT:          0 MISS:          0
cpu0_L1I TRANSLATION  ACCESS:          0 HIT:          0 MISS:          0
cpu0_L1I PREFETCH REQUESTED:          0 ISSUED:          0 USEFUL:          0 USELESS:          0
cpu0_L1I AVERAGE MISS LATENCY: 306.2 cycles
cpu0_L2C TOTAL        ACCESS:    1552520 HIT:     581377 MISS:     971143
cpu0_L2C LOAD         ACCESS:     959371 HIT:     134460 MISS:     824911
cpu0_L2C RFO          ACCESS:     143619 HIT:      11533 MISS:     132086
cpu0_L2C PREFETCH     ACCESS:          0 HIT:          0 MISS:          0
cpu0_L2C WRITE        ACCESS:     427349 HIT:     427121 MISS:        228
cpu0_L2C TRANSLATION  ACCESS:      22181 HIT:       8263 MISS:      13918
cpu0_L2C PREFETCH REQUESTED:          0 ISSUED:          0 USEFUL:          0 USELESS:          0
cpu0_L2C AVERAGE MISS LATENCY: 613.1 cycles
cpu0_STLB TOTAL        ACCESS:     118755 HIT:      87074 MISS:      31681
cpu0_STLB LOAD         ACCESS:     118755 HIT:      87074 MISS:      31681
cpu0_STLB RFO          ACCESS:          0 HIT:          0 MISS:          0
cpu0_STLB PREFETCH     ACCESS:          0 HIT:          0 MISS:          0
cpu0_STLB WRITE        ACCESS:          0 HIT:          0 MISS:          0
cpu0_STLB TRANSLATION  ACCESS:          0 HIT:          0 MISS:          0
cpu0_STLB PREFETCH REQUESTED:          0 ISSUED:          0 USEFUL:          0 USELESS:          0
cpu0_STLB AVERAGE MISS LATENCY: 255.3 cycles

DRAM Statistics

Channel 0 RQ ROW_BUFFER_HIT:     216620
  ROW_BUFFER_MISS:     487531
 AVG DBUS CONGESTED CYCLE: 3.941
WQ ROW_BUFFER_HIT: Channel 0 
  ROW_BUFFER_MISS:      19367
  FULL:     242673
