WARNING: physical memory size is smaller than virtual memory size.

*** ChampSim Multicore Out-of-Order Simulator ***
Warmup Instructions: 25000000
Simulation Instructions: 25000000
Number of CPUs: 1
Page size: 4096

Off-chip DRAM Size: 4 GiB Channels: 1 Width: 64-bit Data Race: 800 MT/s
Heartbeat CPU 0 instructions: 10000000 cycles: 2549402 heartbeat IPC: 3.922 cumulative IPC: 3.922 (Simulation time: 00 hr 00 min 34 sec)
Heartbeat CPU 0 instructions: 20000003 cycles: 5101013 heartbeat IPC: 3.919 cumulative IPC: 3.921 (Simulation time: 00 hr 01 min 10 sec)
Warmup finished CPU 0 instructions: 25000001 cycles: 6388038 cumulative IPC: 3.914 (Simulation time: 00 hr 01 min 29 sec)
Warmup complete CPU 0 instructions: 25000001 cycles: 6388038 cumulative IPC: 3.914 (Simulation time: 00 hr 01 min 29 sec)
Heartbeat CPU 0 instructions: 30000003 cycles: 10281473 heartbeat IPC: 1.93 cumulative IPC: 1.284 (Simulation time: 00 hr 02 min 16 sec)
Heartbeat CPU 0 instructions: 40000001 cycles: 18231635 heartbeat IPC: 1.258 cumulative IPC: 1.267 (Simulation time: 00 hr 03 min 49 sec)
Heartbeat CPU 0 instructions: 50000002 cycles: 25935622 heartbeat IPC: 1.298 cumulative IPC: 1.279 (Simulation time: 00 hr 05 min 18 sec)
Simulation finished CPU 0 instructions: 25000001 cycles: 19547585 cumulative IPC: 1.279 (Simulation time: 00 hr 05 min 18 sec)
Simulation complete CPU 0 instructions: 25000001 cycles: 19547585 cumulative IPC: 1.279 (Simulation time: 00 hr 05 min 18 sec)

ChampSim completed all CPUs

=== Simulation ===
CPU 0 runs ./traces/sphinx3_2520B.trace.xz
Region of Interest Statistics

CPU 0 cumulative IPC: 1.279 instructions: 25000001 cycles: 19547585
CPU 0 Branch Prediction Accuracy: 96.09% MPKI: 3.369 Average ROB Occupancy at Mispredict: 286.3
Branch type MPKI
BRANCH_DIRECT_JUMP: 0.0225
BRANCH_INDIRECT: 0
BRANCH_CONDITIONAL: 3.32
BRANCH_DIRECT_CALL: 0
BRANCH_INDIRECT_CALL: 0
BRANCH_RETURN: 0.0303

LLC TOTAL        ACCESS:     358045 HIT:     116427 MISS:     241618
LLC LOAD         ACCESS:      42004 HIT:      13430 MISS:      28574
LLC RFO          ACCESS:      30274 HIT:      14142 MISS:      16132
LLC PREFETCH     ACCESS:     251926 HIT:      55125 MISS:     196801
LLC WRITE        ACCESS:      33747 HIT:      33730 MISS:         17
LLC TRANSLATION  ACCESS:         94 HIT:          0 MISS:         94
LLC PREFETCH REQUESTED:          0 ISSUED:          0 USEFUL:          0 USELESS:          0
LLC AVERAGE MISS LATENCY: 408 cycles
cpu0_DTLB TOTAL        ACCESS:    4793802 HIT:    4770470 MISS:      23332
cpu0_DTLB LOAD         ACCESS:    4793802 HIT:    4770470 MISS:      23332
cpu0_DTLB RFO          ACCESS:          0 HIT:          0 MISS:          0
cpu0_DTLB PREFETCH     ACCESS:          0 HIT:          0 MISS:          0
cpu0_DTLB WRITE        ACCESS:          0 HIT:          0 MISS:          0
cpu0_DTLB TRANSLATION  ACCESS:          0 HIT:          0 MISS:          0
cpu0_DTLB PREFETCH REQUESTED:          0 ISSUED:          0 USEFUL:          0 USELESS:          0
cpu0_DTLB AVERAGE MISS LATENCY: 5.819 cycles
cpu0_ITLB TOTAL        ACCESS:       2982 HIT:       2974 MISS:          8
cpu0_ITLB LOAD         ACCESS:       2982 HIT:       2974 MISS:          8
cpu0_ITLB RFO          ACCESS:          0 HIT:          0 MISS:          0
cpu0_ITLB PREFETCH     ACCESS:          0 HIT:          0 MISS:          0
cpu0_ITLB WRITE        ACCESS:          0 HIT:          0 MISS:          0
cpu0_ITLB TRANSLATION  ACCESS:          0 HIT:          0 MISS:          0
cpu0_ITLB PREFETCH REQUESTED:          0 ISSUED:          0 USEFUL:          0 USELESS:          0
cpu0_ITLB AVERAGE MISS LATENCY: 25.25 cycles
cpu0_L1D TOTAL        ACCESS:    9826016 HIT:    4960657 MISS:    4865359
cpu0_L1D LOAD         ACCESS:    5416850 HIT:    2951253 MISS:    2465597
cpu0_L1D RFO          ACCESS:          0 HIT:          0 MISS:          0
cpu0_L1D PREFETCH     ACCESS:    4101787 HIT:    1841888 MISS:    2259899
cpu0_L1D WRITE        ACCESS:     307274 HIT:     167508 MISS:     139766
cpu0_L1D TRANSLATION  ACCESS:        105 HIT:          8 MISS:         97
cpu0_L1D PREFETCH REQUESTED:    5455103 ISSUED:    4101790 USEFUL:     259483 USELESS:      10026
cpu0_L1D AVERAGE MISS LATENCY: 9.786 cycles
cpu0_L1I TOTAL        ACCESS:       3373 HIT:       3285 MISS:         88
cpu0_L1I LOAD         ACCESS:       3373 HIT:       3285 MISS:         88
cpu0_L1I RFO          ACCESS:          0 HIT:          0 MISS:          0
cpu0_L1I PREFETCH     ACCESS:          0 HIT:          0 MISS:          0
cpu0_L1I WRITE        ACCESS:          0 HIT:          0 MISS:          0
cpu0_L1I TRANSLATION  ACCESS:          0 HIT:          0 MISS:          0
cpu0_L1I PREFETCH REQUESTED:          0 ISSUED:          0 USEFUL:          0 USELESS:          0
cpu0_L1I AVERAGE MISS LATENCY: 234.5 cycles
cpu0_L2C TOTAL        ACCESS:     461705 HIT:     133282 MISS:     328423
cpu0_L2C LOAD         ACCESS:      53083 HIT:      10915 MISS:      42168
cpu0_L2C RFO          ACCESS:      30763 HIT:        489 MISS:      30274
cpu0_L2C PREFETCH     ACCESS:     345354 HIT:      89565 MISS:     255789
cpu0_L2C WRITE        ACCESS:      32410 HIT:      32312 MISS:         98
cpu0_L2C TRANSLATION  ACCESS:         95 HIT:          1 MISS:         94
cpu0_L2C PREFETCH REQUESTED:      75843 ISSUED:      75843 USEFUL:       8911 USELESS:       3526
cpu0_L2C AVERAGE MISS LATENCY: 320.3 cycles
cpu0_STLB TOTAL        ACCESS:      12564 HIT:      12459 MISS:        105
cpu0_STLB LOAD         ACCESS:      12564 HIT:      12459 MISS:        105
cpu0_STLB RFO          ACCESS:          0 HIT:          0 MISS:          0
cpu0_STLB PREFETCH     ACCESS:          0 HIT:          0 MISS:          0
cpu0_STLB WRITE        ACCESS:          0 HIT:          0 MISS:          0
cpu0_STLB TRANSLATION  ACCESS:          0 HIT:          0 MISS:          0
cpu0_STLB PREFETCH REQUESTED:          0 ISSUED:          0 USEFUL:          0 USELESS:          0
cpu0_STLB AVERAGE MISS LATENCY: 890 cycles

DRAM Statistics

Channel 0 RQ ROW_BUFFER_HIT:     164986
  ROW_BUFFER_MISS:      76128
 AVG DBUS CONGESTED CYCLE: 3.892
WQ ROW_BUFFER_HIT: Channel 0 
  ROW_BUFFER_MISS:       3968
  FULL:      12592
