WARNING: physical memory size is smaller than virtual memory size.

*** ChampSim Multicore Out-of-Order Simulator ***
Warmup Instructions: 25000000
Simulation Instructions: 25000000
Number of CPUs: 1
Page size: 4096

Off-chip DRAM Size: 4 GiB Channels: 1 Width: 64-bit Data Race: 800 MT/s
Heartbeat CPU 0 instructions: 10000003 cycles: 2531137 heartbeat IPC: 3.951 cumulative IPC: 3.951 (Simulation time: 00 hr 00 min 46 sec)
Heartbeat CPU 0 instructions: 20000003 cycles: 5061967 heartbeat IPC: 3.951 cumulative IPC: 3.951 (Simulation time: 00 hr 01 min 36 sec)
Warmup finished CPU 0 instructions: 25000001 cycles: 6327244 cumulative IPC: 3.951 (Simulation time: 00 hr 02 min 01 sec)
Warmup complete CPU 0 instructions: 25000001 cycles: 6327244 cumulative IPC: 3.951 (Simulation time: 00 hr 02 min 01 sec)
Heartbeat CPU 0 instructions: 30000003 cycles: 13183748 heartbeat IPC: 1.231 cumulative IPC: 0.7292 (Simulation time: 00 hr 03 min 28 sec)
Heartbeat CPU 0 instructions: 40000002 cycles: 26701816 heartbeat IPC: 0.7398 cumulative IPC: 0.7362 (Simulation time: 00 hr 06 min 06 sec)
Heartbeat CPU 0 instructions: 50000003 cycles: 40000184 heartbeat IPC: 0.752 cumulative IPC: 0.7424 (Simulation time: 00 hr 08 min 42 sec)
Simulation finished CPU 0 instructions: 25000002 cycles: 33672941 cumulative IPC: 0.7424 (Simulation time: 00 hr 08 min 42 sec)
Simulation complete CPU 0 instructions: 25000002 cycles: 33672941 cumulative IPC: 0.7424 (Simulation time: 00 hr 08 min 42 sec)

ChampSim completed all CPUs

=== Simulation ===
CPU 0 runs ./traces/sphinx3_883B.trace.xz
Region of Interest Statistics

CPU 0 cumulative IPC: 0.7424 instructions: 25000002 cycles: 33672941
CPU 0 Branch Prediction Accuracy: 93.21% MPKI: 6.577 Average ROB Occupancy at Mispredict: 171.9
Branch type MPKI
BRANCH_DIRECT_JUMP: 0.328
BRANCH_INDIRECT: 0
BRANCH_CONDITIONAL: 6.16
BRANCH_DIRECT_CALL: 0
BRANCH_INDIRECT_CALL: 0
BRANCH_RETURN: 0.0907

LLC TOTAL        ACCESS:     416735 HIT:      86613 MISS:     330122
LLC LOAD         ACCESS:     357203 HIT:      39925 MISS:     317278
LLC RFO          ACCESS:      20722 HIT:      10055 MISS:      10667
LLC PREFETCH     ACCESS:          0 HIT:          0 MISS:          0
LLC WRITE        ACCESS:      33600 HIT:      33479 MISS:        121
LLC TRANSLATION  ACCESS:       5210 HIT:       3154 MISS:       2056
LLC PREFETCH REQUESTED:          0 ISSUED:          0 USEFUL:          0 USELESS:          0
LLC AVERAGE MISS LATENCY: 354 cycles
cpu0_DTLB TOTAL        ACCESS:    5135925 HIT:    5000678 MISS:     135247
cpu0_DTLB LOAD         ACCESS:    5135925 HIT:    5000678 MISS:     135247
cpu0_DTLB RFO          ACCESS:          0 HIT:          0 MISS:          0
cpu0_DTLB PREFETCH     ACCESS:          0 HIT:          0 MISS:          0
cpu0_DTLB WRITE        ACCESS:          0 HIT:          0 MISS:          0
cpu0_DTLB TRANSLATION  ACCESS:          0 HIT:          0 MISS:          0
cpu0_DTLB PREFETCH REQUESTED:          0 ISSUED:          0 USEFUL:          0 USELESS:          0
cpu0_DTLB AVERAGE MISS LATENCY: 6.968 cycles
cpu0_ITLB TOTAL        ACCESS:       2000 HIT:       2000 MISS:          0
cpu0_ITLB LOAD         ACCESS:       2000 HIT:       2000 MISS:          0
cpu0_ITLB RFO          ACCESS:          0 HIT:          0 MISS:          0
cpu0_ITLB PREFETCH     ACCESS:          0 HIT:          0 MISS:          0
cpu0_ITLB WRITE        ACCESS:          0 HIT:          0 MISS:          0
cpu0_ITLB TRANSLATION  ACCESS:          0 HIT:          0 MISS:          0
cpu0_ITLB PREFETCH REQUESTED:          0 ISSUED:          0 USEFUL:          0 USELESS:          0
cpu0_ITLB AVERAGE MISS LATENCY: -nan cycles
cpu0_L1D TOTAL        ACCESS:    6294237 HIT:    2980631 MISS:    3313606
cpu0_L1D LOAD         ACCESS:    5633668 HIT:    2411506 MISS:    3222162
cpu0_L1D RFO          ACCESS:          0 HIT:          0 MISS:          0
cpu0_L1D PREFETCH     ACCESS:          0 HIT:          0 MISS:          0
cpu0_L1D WRITE        ACCESS:     643618 HIT:     564171 MISS:      79447
cpu0_L1D TRANSLATION  ACCESS:      16951 HIT:       4954 MISS:      11997
cpu0_L1D PREFETCH REQUESTED:          0 ISSUED:          0 USEFUL:          0 USELESS:          0
cpu0_L1D AVERAGE MISS LATENCY: 25.22 cycles
cpu0_L1I TOTAL        ACCESS:       2282 HIT:       2282 MISS:          0
cpu0_L1I LOAD         ACCESS:       2282 HIT:       2282 MISS:          0
cpu0_L1I RFO          ACCESS:          0 HIT:          0 MISS:          0
cpu0_L1I PREFETCH     ACCESS:          0 HIT:          0 MISS:          0
cpu0_L1I WRITE        ACCESS:          0 HIT:          0 MISS:          0
cpu0_L1I TRANSLATION  ACCESS:          0 HIT:          0 MISS:          0
cpu0_L1I PREFETCH REQUESTED:          0 ISSUED:          0 USEFUL:          0 USELESS:          0
cpu0_L1I AVERAGE MISS LATENCY: -nan cycles
cpu0_L2C TOTAL        ACCESS:     562788 HIT:     179571 MISS:     383217
cpu0_L2C LOAD         ACCESS:     484917 HIT:     127714 MISS:     357203
cpu0_L2C RFO          ACCESS:      24911 HIT:       4189 MISS:      20722
cpu0_L2C PREFETCH     ACCESS:          0 HIT:          0 MISS:          0
cpu0_L2C WRITE        ACCESS:      41104 HIT:      41022 MISS:         82
cpu0_L2C TRANSLATION  ACCESS:      11856 HIT:       6646 MISS:       5210
cpu0_L2C PREFETCH REQUESTED:          0 ISSUED:          0 USEFUL:          0 USELESS:          0
cpu0_L2C AVERAGE MISS LATENCY: 325.8 cycles
cpu0_STLB TOTAL        ACCESS:      48641 HIT:      31686 MISS:      16955
cpu0_STLB LOAD         ACCESS:      48641 HIT:      31686 MISS:      16955
cpu0_STLB RFO          ACCESS:          0 HIT:          0 MISS:          0
cpu0_STLB PREFETCH     ACCESS:          0 HIT:          0 MISS:          0
cpu0_STLB WRITE        ACCESS:          0 HIT:          0 MISS:          0
cpu0_STLB TRANSLATION  ACCESS:          0 HIT:          0 MISS:          0
cpu0_STLB PREFETCH REQUESTED:          0 ISSUED:          0 USEFUL:          0 USELESS:          0
cpu0_STLB AVERAGE MISS LATENCY: 67.29 cycles

DRAM Statistics

Channel 0 RQ ROW_BUFFER_HIT:     191990
  ROW_BUFFER_MISS:     137920
 AVG DBUS CONGESTED CYCLE: 3.885
WQ ROW_BUFFER_HIT: Channel 0 
  ROW_BUFFER_MISS:       3037
  FULL:      12923
