WARNING: physical memory size is smaller than virtual memory size.

*** ChampSim Multicore Out-of-Order Simulator ***
Warmup Instructions: 25000000
Simulation Instructions: 25000000
Number of CPUs: 1
Page size: 4096

Off-chip DRAM Size: 4 GiB Channels: 1 Width: 64-bit Data Race: 800 MT/s
Heartbeat CPU 0 instructions: 10000000 cycles: 2549324 heartbeat IPC: 3.923 cumulative IPC: 3.923 (Simulation time: 00 hr 00 min 46 sec)
Heartbeat CPU 0 instructions: 20000003 cycles: 5100938 heartbeat IPC: 3.919 cumulative IPC: 3.921 (Simulation time: 00 hr 01 min 33 sec)
Warmup finished CPU 0 instructions: 25000003 cycles: 6387961 cumulative IPC: 3.914 (Simulation time: 00 hr 01 min 56 sec)
Warmup complete CPU 0 instructions: 25000003 cycles: 6387961 cumulative IPC: 3.914 (Simulation time: 00 hr 01 min 56 sec)
Heartbeat CPU 0 instructions: 30000000 cycles: 10400204 heartbeat IPC: 1.887 cumulative IPC: 1.246 (Simulation time: 00 hr 02 min 52 sec)
Heartbeat CPU 0 instructions: 40000002 cycles: 18815153 heartbeat IPC: 1.188 cumulative IPC: 1.207 (Simulation time: 00 hr 04 min 45 sec)
Heartbeat CPU 0 instructions: 50000002 cycles: 26990567 heartbeat IPC: 1.223 cumulative IPC: 1.213 (Simulation time: 00 hr 06 min 41 sec)
Simulation finished CPU 0 instructions: 25000003 cycles: 20602608 cumulative IPC: 1.213 (Simulation time: 00 hr 06 min 41 sec)
Simulation complete CPU 0 instructions: 25000003 cycles: 20602608 cumulative IPC: 1.213 (Simulation time: 00 hr 06 min 41 sec)

ChampSim completed all CPUs

=== Simulation ===
CPU 0 runs ./traces/sphinx3_2520B.trace.xz
Region of Interest Statistics

CPU 0 cumulative IPC: 1.213 instructions: 25000003 cycles: 20602608
CPU 0 Branch Prediction Accuracy: 96.09% MPKI: 3.369 Average ROB Occupancy at Mispredict: 291.2
Branch type MPKI
BRANCH_DIRECT_JUMP: 0.0225
BRANCH_INDIRECT: 0
BRANCH_CONDITIONAL: 3.32
BRANCH_DIRECT_CALL: 0
BRANCH_INDIRECT_CALL: 0
BRANCH_RETURN: 0.0303

LLC TOTAL        ACCESS:     349496 HIT:     128167 MISS:     221329
LLC LOAD         ACCESS:     285353 HIT:      79404 MISS:     205949
LLC RFO          ACCESS:      30322 HIT:      15061 MISS:      15261
LLC PREFETCH     ACCESS:          0 HIT:          0 MISS:          0
LLC WRITE        ACCESS:      33727 HIT:      33702 MISS:         25
LLC TRANSLATION  ACCESS:         94 HIT:          0 MISS:         94
LLC PREFETCH REQUESTED:          0 ISSUED:          0 USEFUL:          0 USELESS:          0
LLC AVERAGE MISS LATENCY: 293.7 cycles
cpu0_DTLB TOTAL        ACCESS:    4807661 HIT:    4784214 MISS:      23447
cpu0_DTLB LOAD         ACCESS:    4807661 HIT:    4784214 MISS:      23447
cpu0_DTLB RFO          ACCESS:          0 HIT:          0 MISS:          0
cpu0_DTLB PREFETCH     ACCESS:          0 HIT:          0 MISS:          0
cpu0_DTLB WRITE        ACCESS:          0 HIT:          0 MISS:          0
cpu0_DTLB TRANSLATION  ACCESS:          0 HIT:          0 MISS:          0
cpu0_DTLB PREFETCH REQUESTED:          0 ISSUED:          0 USEFUL:          0 USELESS:          0
cpu0_DTLB AVERAGE MISS LATENCY: 5.54 cycles
cpu0_ITLB TOTAL        ACCESS:       2982 HIT:       2974 MISS:          8
cpu0_ITLB LOAD         ACCESS:       2982 HIT:       2974 MISS:          8
cpu0_ITLB RFO          ACCESS:          0 HIT:          0 MISS:          0
cpu0_ITLB PREFETCH     ACCESS:          0 HIT:          0 MISS:          0
cpu0_ITLB WRITE        ACCESS:          0 HIT:          0 MISS:          0
cpu0_ITLB TRANSLATION  ACCESS:          0 HIT:          0 MISS:          0
cpu0_ITLB PREFETCH REQUESTED:          0 ISSUED:          0 USEFUL:          0 USELESS:          0
cpu0_ITLB AVERAGE MISS LATENCY: 25.25 cycles
cpu0_L1D TOTAL        ACCESS:    5740859 HIT:    2615828 MISS:    3125031
cpu0_L1D LOAD         ACCESS:    5433476 HIT:    2446012 MISS:    2987464
cpu0_L1D RFO          ACCESS:          0 HIT:          0 MISS:          0
cpu0_L1D PREFETCH     ACCESS:          0 HIT:          0 MISS:          0
cpu0_L1D WRITE        ACCESS:     307278 HIT:     169807 MISS:     137471
cpu0_L1D TRANSLATION  ACCESS:        105 HIT:          9 MISS:         96
cpu0_L1D PREFETCH REQUESTED:          0 ISSUED:          0 USEFUL:          0 USELESS:          0
cpu0_L1D AVERAGE MISS LATENCY: 11.85 cycles
cpu0_L1I TOTAL        ACCESS:       3373 HIT:       3285 MISS:         88
cpu0_L1I LOAD         ACCESS:       3373 HIT:       3285 MISS:         88
cpu0_L1I RFO          ACCESS:          0 HIT:          0 MISS:          0
cpu0_L1I PREFETCH     ACCESS:          0 HIT:          0 MISS:          0
cpu0_L1I WRITE        ACCESS:          0 HIT:          0 MISS:          0
cpu0_L1I TRANSLATION  ACCESS:          0 HIT:          0 MISS:          0
cpu0_L1I PREFETCH REQUESTED:          0 ISSUED:          0 USEFUL:          0 USELESS:          0
cpu0_L1I AVERAGE MISS LATENCY: 174.9 cycles
cpu0_L2C TOTAL        ACCESS:     375196 HIT:      59395 MISS:     315801
cpu0_L2C LOAD         ACCESS:     311880 HIT:      26527 MISS:     285353
cpu0_L2C RFO          ACCESS:      30806 HIT:        484 MISS:      30322
cpu0_L2C PREFETCH     ACCESS:          0 HIT:          0 MISS:          0
cpu0_L2C WRITE        ACCESS:      32415 HIT:      32383 MISS:         32
cpu0_L2C TRANSLATION  ACCESS:         95 HIT:          1 MISS:         94
cpu0_L2C PREFETCH REQUESTED:          0 ISSUED:          0 USEFUL:          0 USELESS:          0
cpu0_L2C AVERAGE MISS LATENCY: 226.5 cycles
cpu0_STLB TOTAL        ACCESS:      12559 HIT:      12454 MISS:        105
cpu0_STLB LOAD         ACCESS:      12559 HIT:      12454 MISS:        105
cpu0_STLB RFO          ACCESS:          0 HIT:          0 MISS:          0
cpu0_STLB PREFETCH     ACCESS:          0 HIT:          0 MISS:          0
cpu0_STLB WRITE        ACCESS:          0 HIT:          0 MISS:          0
cpu0_STLB TRANSLATION  ACCESS:          0 HIT:          0 MISS:          0
cpu0_STLB PREFETCH REQUESTED:          0 ISSUED:          0 USEFUL:          0 USELESS:          0
cpu0_STLB AVERAGE MISS LATENCY: 805.6 cycles

DRAM Statistics

Channel 0 RQ ROW_BUFFER_HIT:     149075
  ROW_BUFFER_MISS:      71877
 AVG DBUS CONGESTED CYCLE: 3.871
WQ ROW_BUFFER_HIT: Channel 0 
  ROW_BUFFER_MISS:       4681
  FULL:      10999
