WARNING: physical memory size is smaller than virtual memory size.

*** ChampSim Multicore Out-of-Order Simulator ***
Warmup Instructions: 25000000
Simulation Instructions: 25000000
Number of CPUs: 1
Page size: 4096

Off-chip DRAM Size: 4 GiB Channels: 1 Width: 64-bit Data Race: 800 MT/s
Heartbeat CPU 0 instructions: 10000003 cycles: 2531170 heartbeat IPC: 3.951 cumulative IPC: 3.951 (Simulation time: 00 hr 00 min 37 sec)
Heartbeat CPU 0 instructions: 20000003 cycles: 5061977 heartbeat IPC: 3.951 cumulative IPC: 3.951 (Simulation time: 00 hr 01 min 15 sec)
Warmup finished CPU 0 instructions: 25000001 cycles: 6327249 cumulative IPC: 3.951 (Simulation time: 00 hr 01 min 33 sec)
Warmup complete CPU 0 instructions: 25000001 cycles: 6327249 cumulative IPC: 3.951 (Simulation time: 00 hr 01 min 33 sec)
Heartbeat CPU 0 instructions: 30000003 cycles: 12867208 heartbeat IPC: 1.281 cumulative IPC: 0.7645 (Simulation time: 00 hr 02 min 38 sec)
Heartbeat CPU 0 instructions: 40000002 cycles: 25735921 heartbeat IPC: 0.7771 cumulative IPC: 0.7729 (Simulation time: 00 hr 04 min 34 sec)
Heartbeat CPU 0 instructions: 50000003 cycles: 38356814 heartbeat IPC: 0.7923 cumulative IPC: 0.7805 (Simulation time: 00 hr 06 min 16 sec)
Simulation finished CPU 0 instructions: 25000002 cycles: 32029566 cumulative IPC: 0.7805 (Simulation time: 00 hr 06 min 16 sec)
Simulation complete CPU 0 instructions: 25000002 cycles: 32029566 cumulative IPC: 0.7805 (Simulation time: 00 hr 06 min 16 sec)

ChampSim completed all CPUs

=== Simulation ===
CPU 0 runs ./traces/sphinx3_883B.trace.xz
Region of Interest Statistics

CPU 0 cumulative IPC: 0.7805 instructions: 25000002 cycles: 32029566
CPU 0 Branch Prediction Accuracy: 93.21% MPKI: 6.577 Average ROB Occupancy at Mispredict: 168.9
Branch type MPKI
BRANCH_DIRECT_JUMP: 0.328
BRANCH_INDIRECT: 0
BRANCH_CONDITIONAL: 6.16
BRANCH_DIRECT_CALL: 0
BRANCH_INDIRECT_CALL: 0
BRANCH_RETURN: 0.0907

LLC TOTAL        ACCESS:     494875 HIT:     105030 MISS:     389845
LLC LOAD         ACCESS:     154518 HIT:      29179 MISS:     125339
LLC RFO          ACCESS:      20908 HIT:       9406 MISS:      11502
LLC PREFETCH     ACCESS:     278756 HIT:      28362 MISS:     250394
LLC WRITE        ACCESS:      34833 HIT:      34758 MISS:         75
LLC TRANSLATION  ACCESS:       5860 HIT:       3325 MISS:       2535
LLC PREFETCH REQUESTED:          0 ISSUED:          0 USEFUL:          0 USELESS:          0
LLC AVERAGE MISS LATENCY: 500.8 cycles
cpu0_DTLB TOTAL        ACCESS:    5105924 HIT:    4968774 MISS:     137150
cpu0_DTLB LOAD         ACCESS:    5105924 HIT:    4968774 MISS:     137150
cpu0_DTLB RFO          ACCESS:          0 HIT:          0 MISS:          0
cpu0_DTLB PREFETCH     ACCESS:          0 HIT:          0 MISS:          0
cpu0_DTLB WRITE        ACCESS:          0 HIT:          0 MISS:          0
cpu0_DTLB TRANSLATION  ACCESS:          0 HIT:          0 MISS:          0
cpu0_DTLB PREFETCH REQUESTED:          0 ISSUED:          0 USEFUL:          0 USELESS:          0
cpu0_DTLB AVERAGE MISS LATENCY: 8.477 cycles
cpu0_ITLB TOTAL        ACCESS:       2000 HIT:       2000 MISS:          0
cpu0_ITLB LOAD         ACCESS:       2000 HIT:       2000 MISS:          0
cpu0_ITLB RFO          ACCESS:          0 HIT:          0 MISS:          0
cpu0_ITLB PREFETCH     ACCESS:          0 HIT:          0 MISS:          0
cpu0_ITLB WRITE        ACCESS:          0 HIT:          0 MISS:          0
cpu0_ITLB TRANSLATION  ACCESS:          0 HIT:          0 MISS:          0
cpu0_ITLB PREFETCH REQUESTED:          0 ISSUED:          0 USEFUL:          0 USELESS:          0
cpu0_ITLB AVERAGE MISS LATENCY: -nan cycles
cpu0_L1D TOTAL        ACCESS:   10133223 HIT:    5093517 MISS:    5039706
cpu0_L1D LOAD         ACCESS:    5593211 HIT:    2783242 MISS:    2809969
cpu0_L1D RFO          ACCESS:          0 HIT:          0 MISS:          0
cpu0_L1D PREFETCH     ACCESS:    3879438 HIT:    1744179 MISS:    2135259
cpu0_L1D WRITE        ACCESS:     643620 HIT:     561869 MISS:      81751
cpu0_L1D TRANSLATION  ACCESS:      16954 HIT:       4227 MISS:      12727
cpu0_L1D PREFETCH REQUESTED:    5627395 ISSUED:    3879441 USEFUL:     211128 USELESS:      90617
cpu0_L1D AVERAGE MISS LATENCY: 23.34 cycles
cpu0_L1I TOTAL        ACCESS:       2282 HIT:       2282 MISS:          0
cpu0_L1I LOAD         ACCESS:       2282 HIT:       2282 MISS:          0
cpu0_L1I RFO          ACCESS:          0 HIT:          0 MISS:          0
cpu0_L1I PREFETCH     ACCESS:          0 HIT:          0 MISS:          0
cpu0_L1I WRITE        ACCESS:          0 HIT:          0 MISS:          0
cpu0_L1I TRANSLATION  ACCESS:          0 HIT:          0 MISS:          0
cpu0_L1I PREFETCH REQUESTED:          0 ISSUED:          0 USEFUL:          0 USELESS:          0
cpu0_L1I AVERAGE MISS LATENCY: -nan cycles
cpu0_L2C TOTAL        ACCESS:     750434 HIT:     266448 MISS:     483986
cpu0_L2C LOAD         ACCESS:     284566 HIT:     128713 MISS:     155853
cpu0_L2C RFO          ACCESS:      25432 HIT:       4524 MISS:      20908
cpu0_L2C PREFETCH     ACCESS:     386092 HIT:      84831 MISS:     301261
cpu0_L2C WRITE        ACCESS:      41771 HIT:      41667 MISS:        104
cpu0_L2C TRANSLATION  ACCESS:      12573 HIT:       6713 MISS:       5860
cpu0_L2C PREFETCH REQUESTED:      84347 ISSUED:      84347 USEFUL:      18290 USELESS:      30523
cpu0_L2C AVERAGE MISS LATENCY: 420.5 cycles
cpu0_STLB TOTAL        ACCESS:      48458 HIT:      31500 MISS:      16958
cpu0_STLB LOAD         ACCESS:      48458 HIT:      31500 MISS:      16958
cpu0_STLB RFO          ACCESS:          0 HIT:          0 MISS:          0
cpu0_STLB PREFETCH     ACCESS:          0 HIT:          0 MISS:          0
cpu0_STLB WRITE        ACCESS:          0 HIT:          0 MISS:          0
cpu0_STLB TRANSLATION  ACCESS:          0 HIT:          0 MISS:          0
cpu0_STLB PREFETCH REQUESTED:          0 ISSUED:          0 USEFUL:          0 USELESS:          0
cpu0_STLB AVERAGE MISS LATENCY: 87.35 cycles

DRAM Statistics

Channel 0 RQ ROW_BUFFER_HIT:     237652
  ROW_BUFFER_MISS:     151773
 AVG DBUS CONGESTED CYCLE: 3.896
WQ ROW_BUFFER_HIT: Channel 0 
  ROW_BUFFER_MISS:       1696
  FULL:      16168
