WARNING: physical memory size is smaller than virtual memory size.

*** ChampSim Multicore Out-of-Order Simulator ***
Warmup Instructions: 25000000
Simulation Instructions: 25000000
Number of CPUs: 1
Page size: 4096

Off-chip DRAM Size: 4 GiB Channels: 1 Width: 64-bit Data Race: 800 MT/s
Heartbeat CPU 0 instructions: 10000002 cycles: 2515694 heartbeat IPC: 3.975 cumulative IPC: 3.975 (Simulation time: 00 hr 00 min 59 sec)
Heartbeat CPU 0 instructions: 20000002 cycles: 5028144 heartbeat IPC: 3.98 cumulative IPC: 3.978 (Simulation time: 00 hr 01 min 56 sec)
Warmup finished CPU 0 instructions: 25000003 cycles: 6296929 cumulative IPC: 3.97 (Simulation time: 00 hr 02 min 20 sec)
Warmup complete CPU 0 instructions: 25000003 cycles: 6296929 cumulative IPC: 3.97 (Simulation time: 00 hr 02 min 20 sec)
Heartbeat CPU 0 instructions: 30000002 cycles: 10957619 heartbeat IPC: 1.686 cumulative IPC: 1.073 (Simulation time: 00 hr 03 min 18 sec)
Heartbeat CPU 0 instructions: 40000001 cycles: 20827927 heartbeat IPC: 1.013 cumulative IPC: 1.032 (Simulation time: 00 hr 05 min 20 sec)
Heartbeat CPU 0 instructions: 50000000 cycles: 29563035 heartbeat IPC: 1.145 cumulative IPC: 1.075 (Simulation time: 00 hr 07 min 12 sec)
Simulation finished CPU 0 instructions: 25000001 cycles: 23266109 cumulative IPC: 1.075 (Simulation time: 00 hr 07 min 12 sec)
Simulation complete CPU 0 instructions: 25000001 cycles: 23266109 cumulative IPC: 1.075 (Simulation time: 00 hr 07 min 12 sec)

ChampSim completed all CPUs

=== Simulation ===
CPU 0 runs ./traces/xalancbmk_748B.trace.xz
Region of Interest Statistics

CPU 0 cumulative IPC: 1.075 instructions: 25000001 cycles: 23266109
CPU 0 Branch Prediction Accuracy: 92.89% MPKI: 19.42 Average ROB Occupancy at Mispredict: 21.45
Branch type MPKI
BRANCH_DIRECT_JUMP: 0.00308
BRANCH_INDIRECT: 0.491
BRANCH_CONDITIONAL: 14.7
BRANCH_DIRECT_CALL: 0.125
BRANCH_INDIRECT_CALL: 0.732
BRANCH_RETURN: 3.33

LLC TOTAL        ACCESS:     225343 HIT:     138435 MISS:      86908
LLC LOAD         ACCESS:      46355 HIT:      31088 MISS:      15267
LLC RFO          ACCESS:      68454 HIT:       9668 MISS:      58786
LLC PREFETCH     ACCESS:          0 HIT:          0 MISS:          0
LLC WRITE        ACCESS:      88584 HIT:      87629 MISS:        955
LLC TRANSLATION  ACCESS:      21950 HIT:      10050 MISS:      11900
LLC PREFETCH REQUESTED:          0 ISSUED:          0 USEFUL:          0 USELESS:          0
LLC AVERAGE MISS LATENCY: 395.5 cycles
cpu0_DTLB TOTAL        ACCESS:    7461527 HIT:    7034645 MISS:     426882
cpu0_DTLB LOAD         ACCESS:    7461527 HIT:    7034645 MISS:     426882
cpu0_DTLB RFO          ACCESS:          0 HIT:          0 MISS:          0
cpu0_DTLB PREFETCH     ACCESS:          0 HIT:          0 MISS:          0
cpu0_DTLB WRITE        ACCESS:          0 HIT:          0 MISS:          0
cpu0_DTLB TRANSLATION  ACCESS:          0 HIT:          0 MISS:          0
cpu0_DTLB PREFETCH REQUESTED:          0 ISSUED:          0 USEFUL:          0 USELESS:          0
cpu0_DTLB AVERAGE MISS LATENCY: 18.96 cycles
cpu0_ITLB TOTAL        ACCESS:    1767333 HIT:    1690050 MISS:      77283
cpu0_ITLB LOAD         ACCESS:    1767333 HIT:    1690050 MISS:      77283
cpu0_ITLB RFO          ACCESS:          0 HIT:          0 MISS:          0
cpu0_ITLB PREFETCH     ACCESS:          0 HIT:          0 MISS:          0
cpu0_ITLB WRITE        ACCESS:          0 HIT:          0 MISS:          0
cpu0_ITLB TRANSLATION  ACCESS:          0 HIT:          0 MISS:          0
cpu0_ITLB PREFETCH REQUESTED:          0 ISSUED:          0 USEFUL:          0 USELESS:          0
cpu0_ITLB AVERAGE MISS LATENCY: 3.639 cycles
cpu0_L1D TOTAL        ACCESS:    9116148 HIT:    7598865 MISS:    1517283
cpu0_L1D LOAD         ACCESS:    5706828 HIT:    4545744 MISS:    1161084
cpu0_L1D RFO          ACCESS:          0 HIT:          0 MISS:          0
cpu0_L1D PREFETCH     ACCESS:          0 HIT:          0 MISS:          0
cpu0_L1D WRITE        ACCESS:    3373959 HIT:    3047856 MISS:     326103
cpu0_L1D TRANSLATION  ACCESS:      35361 HIT:       5265 MISS:      30096
cpu0_L1D PREFETCH REQUESTED:          0 ISSUED:          0 USEFUL:          0 USELESS:          0
cpu0_L1D AVERAGE MISS LATENCY: 26.6 cycles
cpu0_L1I TOTAL        ACCESS:    1933180 HIT:    1878908 MISS:      54272
cpu0_L1I LOAD         ACCESS:    1933180 HIT:    1878908 MISS:      54272
cpu0_L1I RFO          ACCESS:          0 HIT:          0 MISS:          0
cpu0_L1I PREFETCH     ACCESS:          0 HIT:          0 MISS:          0
cpu0_L1I WRITE        ACCESS:          0 HIT:          0 MISS:          0
cpu0_L1I TRANSLATION  ACCESS:          0 HIT:          0 MISS:          0
cpu0_L1I PREFETCH REQUESTED:          0 ISSUED:          0 USEFUL:          0 USELESS:          0
cpu0_L1I AVERAGE MISS LATENCY: 7.613 cycles
cpu0_L2C TOTAL        ACCESS:     690497 HIT:     553619 MISS:     136878
cpu0_L2C LOAD         ACCESS:     456399 HIT:     410044 MISS:      46355
cpu0_L2C RFO          ACCESS:      81109 HIT:      12655 MISS:      68454
cpu0_L2C PREFETCH     ACCESS:          0 HIT:          0 MISS:          0
cpu0_L2C WRITE        ACCESS:     123064 HIT:     122945 MISS:        119
cpu0_L2C TRANSLATION  ACCESS:      29925 HIT:       7975 MISS:      21950
cpu0_L2C PREFETCH REQUESTED:          0 ISSUED:          0 USEFUL:          0 USELESS:          0
cpu0_L2C AVERAGE MISS LATENCY: 271.7 cycles
cpu0_STLB TOTAL        ACCESS:     294419 HIT:     271366 MISS:      23053
cpu0_STLB LOAD         ACCESS:     294419 HIT:     271366 MISS:      23053
cpu0_STLB RFO          ACCESS:          0 HIT:          0 MISS:          0
cpu0_STLB PREFETCH     ACCESS:          0 HIT:          0 MISS:          0
cpu0_STLB WRITE        ACCESS:          0 HIT:          0 MISS:          0
cpu0_STLB TRANSLATION  ACCESS:          0 HIT:          0 MISS:          0
cpu0_STLB PREFETCH REQUESTED:          0 ISSUED:          0 USEFUL:          0 USELESS:          0
cpu0_STLB AVERAGE MISS LATENCY: 292.7 cycles

DRAM Statistics

Channel 0 RQ ROW_BUFFER_HIT:      31858
  ROW_BUFFER_MISS:      54088
 AVG DBUS CONGESTED CYCLE: 3.979
WQ ROW_BUFFER_HIT: Channel 0 
  ROW_BUFFER_MISS:       5160
  FULL:      55377
