WARNING: physical memory size is smaller than virtual memory size.

*** ChampSim Multicore Out-of-Order Simulator ***
Warmup Instructions: 25000000
Simulation Instructions: 25000000
Number of CPUs: 1
Page size: 4096

Off-chip DRAM Size: 4 GiB Channels: 1 Width: 64-bit Data Race: 800 MT/s
Heartbeat CPU 0 instructions: 10000001 cycles: 2593209 heartbeat IPC: 3.856 cumulative IPC: 3.856 (Simulation time: 00 hr 00 min 55 sec)
Heartbeat CPU 0 instructions: 20000000 cycles: 5184567 heartbeat IPC: 3.859 cumulative IPC: 3.858 (Simulation time: 00 hr 01 min 43 sec)
Warmup finished CPU 0 instructions: 25000002 cycles: 6468023 cumulative IPC: 3.865 (Simulation time: 00 hr 02 min 07 sec)
Warmup complete CPU 0 instructions: 25000002 cycles: 6468023 cumulative IPC: 3.865 (Simulation time: 00 hr 02 min 07 sec)
Heartbeat CPU 0 instructions: 30000001 cycles: 8726216 heartbeat IPC: 2.824 cumulative IPC: 2.214 (Simulation time: 00 hr 02 min 39 sec)
Heartbeat CPU 0 instructions: 40000000 cycles: 13357751 heartbeat IPC: 2.159 cumulative IPC: 2.177 (Simulation time: 00 hr 03 min 42 sec)
Heartbeat CPU 0 instructions: 50000000 cycles: 18040125 heartbeat IPC: 2.136 cumulative IPC: 2.16 (Simulation time: 00 hr 04 min 55 sec)
Simulation finished CPU 0 instructions: 25000002 cycles: 11572104 cumulative IPC: 2.16 (Simulation time: 00 hr 04 min 55 sec)
Simulation complete CPU 0 instructions: 25000002 cycles: 11572104 cumulative IPC: 2.16 (Simulation time: 00 hr 04 min 55 sec)

ChampSim completed all CPUs

=== Simulation ===
CPU 0 runs ./traces/zeusmp_300B.trace.xz
Region of Interest Statistics

CPU 0 cumulative IPC: 2.16 instructions: 25000002 cycles: 11572104
CPU 0 Branch Prediction Accuracy: 98.82% MPKI: 0.461 Average ROB Occupancy at Mispredict: 217.2
Branch type MPKI
BRANCH_DIRECT_JUMP: 0.0227
BRANCH_INDIRECT: 0
BRANCH_CONDITIONAL: 0.438
BRANCH_DIRECT_CALL: 0
BRANCH_INDIRECT_CALL: 0
BRANCH_RETURN: 0

LLC TOTAL        ACCESS:     155629 HIT:      87727 MISS:      67902
LLC LOAD         ACCESS:      76198 HIT:      28120 MISS:      48078
LLC RFO          ACCESS:      38474 HIT:      20046 MISS:      18428
LLC PREFETCH     ACCESS:          0 HIT:          0 MISS:          0
LLC WRITE        ACCESS:      39487 HIT:      39113 MISS:        374
LLC TRANSLATION  ACCESS:       1470 HIT:        448 MISS:       1022
LLC PREFETCH REQUESTED:          0 ISSUED:          0 USEFUL:          0 USELESS:          0
LLC AVERAGE MISS LATENCY: 541.4 cycles
cpu0_DTLB TOTAL        ACCESS:    4302340 HIT:    3988385 MISS:     313955
cpu0_DTLB LOAD         ACCESS:    4302340 HIT:    3988385 MISS:     313955
cpu0_DTLB RFO          ACCESS:          0 HIT:          0 MISS:          0
cpu0_DTLB PREFETCH     ACCESS:          0 HIT:          0 MISS:          0
cpu0_DTLB WRITE        ACCESS:          0 HIT:          0 MISS:          0
cpu0_DTLB TRANSLATION  ACCESS:          0 HIT:          0 MISS:          0
cpu0_DTLB PREFETCH REQUESTED:          0 ISSUED:          0 USEFUL:          0 USELESS:          0
cpu0_DTLB AVERAGE MISS LATENCY: 9.594 cycles
cpu0_ITLB TOTAL        ACCESS:      88040 HIT:      88040 MISS:          0
cpu0_ITLB LOAD         ACCESS:      88040 HIT:      88040 MISS:          0
cpu0_ITLB RFO          ACCESS:          0 HIT:          0 MISS:          0
cpu0_ITLB PREFETCH     ACCESS:          0 HIT:          0 MISS:          0
cpu0_ITLB WRITE        ACCESS:          0 HIT:          0 MISS:          0
cpu0_ITLB TRANSLATION  ACCESS:          0 HIT:          0 MISS:          0
cpu0_ITLB PREFETCH REQUESTED:          0 ISSUED:          0 USEFUL:          0 USELESS:          0
cpu0_ITLB AVERAGE MISS LATENCY: -nan cycles
cpu0_L1D TOTAL        ACCESS:    5439549 HIT:    4236573 MISS:    1202976
cpu0_L1D LOAD         ACCESS:    3291002 HIT:    2638203 MISS:     652799
cpu0_L1D RFO          ACCESS:          0 HIT:          0 MISS:          0
cpu0_L1D PREFETCH     ACCESS:          0 HIT:          0 MISS:          0
cpu0_L1D WRITE        ACCESS:    2146516 HIT:    1598352 MISS:     548164
cpu0_L1D TRANSLATION  ACCESS:       2031 HIT:         18 MISS:       2013
cpu0_L1D PREFETCH REQUESTED:          0 ISSUED:          0 USEFUL:          0 USELESS:          0
cpu0_L1D AVERAGE MISS LATENCY: 36.13 cycles
cpu0_L1I TOTAL        ACCESS:     111793 HIT:     111793 MISS:          0
cpu0_L1I LOAD         ACCESS:     111793 HIT:     111793 MISS:          0
cpu0_L1I RFO          ACCESS:          0 HIT:          0 MISS:          0
cpu0_L1I PREFETCH     ACCESS:          0 HIT:          0 MISS:          0
cpu0_L1I WRITE        ACCESS:          0 HIT:          0 MISS:          0
cpu0_L1I TRANSLATION  ACCESS:          0 HIT:          0 MISS:          0
cpu0_L1I PREFETCH REQUESTED:          0 ISSUED:          0 USEFUL:          0 USELESS:          0
cpu0_L1I AVERAGE MISS LATENCY: -nan cycles
cpu0_L2C TOTAL        ACCESS:     882102 HIT:     765926 MISS:     116176
cpu0_L2C LOAD         ACCESS:     507178 HIT:     430980 MISS:      76198
cpu0_L2C RFO          ACCESS:     144155 HIT:     105681 MISS:      38474
cpu0_L2C PREFETCH     ACCESS:          0 HIT:          0 MISS:          0
cpu0_L2C WRITE        ACCESS:     228758 HIT:     228724 MISS:         34
cpu0_L2C TRANSLATION  ACCESS:       2011 HIT:        541 MISS:       1470
cpu0_L2C PREFETCH REQUESTED:          0 ISSUED:          0 USEFUL:          0 USELESS:          0
cpu0_L2C AVERAGE MISS LATENCY: 337 cycles
cpu0_STLB TOTAL        ACCESS:     274529 HIT:     272832 MISS:       1697
cpu0_STLB LOAD         ACCESS:     274529 HIT:     272832 MISS:       1697
cpu0_STLB RFO          ACCESS:          0 HIT:          0 MISS:          0
cpu0_STLB PREFETCH     ACCESS:          0 HIT:          0 MISS:          0
cpu0_STLB WRITE        ACCESS:          0 HIT:          0 MISS:          0
cpu0_STLB TRANSLATION  ACCESS:          0 HIT:          0 MISS:          0
cpu0_STLB PREFETCH REQUESTED:          0 ISSUED:          0 USEFUL:          0 USELESS:          0
cpu0_STLB AVERAGE MISS LATENCY: 555.5 cycles

DRAM Statistics

Channel 0 RQ ROW_BUFFER_HIT:      13653
  ROW_BUFFER_MISS:      53875
 AVG DBUS CONGESTED CYCLE: 3.94
WQ ROW_BUFFER_HIT: Channel 0 
  ROW_BUFFER_MISS:       3013
  FULL:      15517
