WARNING: physical memory size is smaller than virtual memory size.

*** ChampSim Multicore Out-of-Order Simulator ***
Warmup Instructions: 25000000
Simulation Instructions: 25000000
Number of CPUs: 1
Page size: 4096

Off-chip DRAM Size: 4 GiB Channels: 1 Width: 64-bit Data Race: 800 MT/s
Heartbeat CPU 0 instructions: 10000001 cycles: 2516849 heartbeat IPC: 3.973 cumulative IPC: 3.973 (Simulation time: 00 hr 00 min 49 sec)
Heartbeat CPU 0 instructions: 20000000 cycles: 5148793 heartbeat IPC: 3.799 cumulative IPC: 3.884 (Simulation time: 00 hr 01 min 41 sec)
Warmup finished CPU 0 instructions: 25000001 cycles: 6549897 cumulative IPC: 3.817 (Simulation time: 00 hr 02 min 08 sec)
Warmup complete CPU 0 instructions: 25000001 cycles: 6549897 cumulative IPC: 3.817 (Simulation time: 00 hr 02 min 08 sec)
Heartbeat CPU 0 instructions: 30000000 cycles: 10155509 heartbeat IPC: 1.997 cumulative IPC: 1.387 (Simulation time: 00 hr 03 min 00 sec)
Heartbeat CPU 0 instructions: 40000001 cycles: 17381320 heartbeat IPC: 1.384 cumulative IPC: 1.385 (Simulation time: 00 hr 04 min 29 sec)
Heartbeat CPU 0 instructions: 50000000 cycles: 24562728 heartbeat IPC: 1.392 cumulative IPC: 1.388 (Simulation time: 00 hr 05 min 51 sec)
Simulation finished CPU 0 instructions: 25000003 cycles: 18012833 cumulative IPC: 1.388 (Simulation time: 00 hr 05 min 51 sec)
Simulation complete CPU 0 instructions: 25000003 cycles: 18012833 cumulative IPC: 1.388 (Simulation time: 00 hr 05 min 51 sec)

ChampSim completed all CPUs

=== Simulation ===
CPU 0 runs ./traces/zeusmp_100B.trace.xz
Region of Interest Statistics

CPU 0 cumulative IPC: 1.388 instructions: 25000003 cycles: 18012833
CPU 0 Branch Prediction Accuracy: 99.35% MPKI: 0.3559 Average ROB Occupancy at Mispredict: 313.8
Branch type MPKI
BRANCH_DIRECT_JUMP: 0
BRANCH_INDIRECT: 0
BRANCH_CONDITIONAL: 0.356
BRANCH_DIRECT_CALL: 0
BRANCH_INDIRECT_CALL: 0
BRANCH_RETURN: 0

LLC TOTAL        ACCESS:     203321 HIT:      74860 MISS:     128461
LLC LOAD         ACCESS:     101590 HIT:      25370 MISS:      76220
LLC RFO          ACCESS:      49536 HIT:          0 MISS:      49536
LLC PREFETCH     ACCESS:          0 HIT:          0 MISS:          0
LLC WRITE        ACCESS:      49506 HIT:      48457 MISS:       1049
LLC TRANSLATION  ACCESS:       2689 HIT:       1033 MISS:       1656
LLC PREFETCH REQUESTED:          0 ISSUED:          0 USEFUL:          0 USELESS:          0
LLC AVERAGE MISS LATENCY: 1035 cycles
cpu0_DTLB TOTAL        ACCESS:    4666009 HIT:    3561795 MISS:    1104214
cpu0_DTLB LOAD         ACCESS:    4666009 HIT:    3561795 MISS:    1104214
cpu0_DTLB RFO          ACCESS:          0 HIT:          0 MISS:          0
cpu0_DTLB PREFETCH     ACCESS:          0 HIT:          0 MISS:          0
cpu0_DTLB WRITE        ACCESS:          0 HIT:          0 MISS:          0
cpu0_DTLB TRANSLATION  ACCESS:          0 HIT:          0 MISS:          0
cpu0_DTLB PREFETCH REQUESTED:          0 ISSUED:          0 USEFUL:          0 USELESS:          0
cpu0_DTLB AVERAGE MISS LATENCY: 9.974 cycles
cpu0_ITLB TOTAL        ACCESS:          0 HIT:          0 MISS:          0
cpu0_ITLB LOAD         ACCESS:          0 HIT:          0 MISS:          0
cpu0_ITLB RFO          ACCESS:          0 HIT:          0 MISS:          0
cpu0_ITLB PREFETCH     ACCESS:          0 HIT:          0 MISS:          0
cpu0_ITLB WRITE        ACCESS:          0 HIT:          0 MISS:          0
cpu0_ITLB TRANSLATION  ACCESS:          0 HIT:          0 MISS:          0
cpu0_ITLB PREFETCH REQUESTED:          0 ISSUED:          0 USEFUL:          0 USELESS:          0
cpu0_ITLB AVERAGE MISS LATENCY: -nan cycles
cpu0_L1D TOTAL        ACCESS:    5611753 HIT:    4053326 MISS:    1558427
cpu0_L1D LOAD         ACCESS:    3844917 HIT:    2932972 MISS:     911945
cpu0_L1D RFO          ACCESS:          0 HIT:          0 MISS:          0
cpu0_L1D PREFETCH     ACCESS:          0 HIT:          0 MISS:          0
cpu0_L1D WRITE        ACCESS:    1763656 HIT:    1120354 MISS:     643302
cpu0_L1D TRANSLATION  ACCESS:       3180 HIT:          0 MISS:       3180
cpu0_L1D PREFETCH REQUESTED:          0 ISSUED:          0 USEFUL:          0 USELESS:          0
cpu0_L1D AVERAGE MISS LATENCY: 97.2 cycles
cpu0_L1I TOTAL        ACCESS:          0 HIT:          0 MISS:          0
cpu0_L1I LOAD         ACCESS:          0 HIT:          0 MISS:          0
cpu0_L1I RFO          ACCESS:          0 HIT:          0 MISS:          0
cpu0_L1I PREFETCH     ACCESS:          0 HIT:          0 MISS:          0
cpu0_L1I WRITE        ACCESS:          0 HIT:          0 MISS:          0
cpu0_L1I TRANSLATION  ACCESS:          0 HIT:          0 MISS:          0
cpu0_L1I PREFETCH REQUESTED:          0 ISSUED:          0 USEFUL:          0 USELESS:          0
cpu0_L1I AVERAGE MISS LATENCY: -nan cycles
cpu0_L2C TOTAL        ACCESS:    2008205 HIT:    1854389 MISS:     153816
cpu0_L2C LOAD         ACCESS:     896144 HIT:     794553 MISS:     101591
cpu0_L2C RFO          ACCESS:     545310 HIT:     495774 MISS:      49536
cpu0_L2C PREFETCH     ACCESS:          0 HIT:          0 MISS:          0
cpu0_L2C WRITE        ACCESS:     563571 HIT:     563571 MISS:          0
cpu0_L2C TRANSLATION  ACCESS:       3180 HIT:        491 MISS:       2689
cpu0_L2C PREFETCH REQUESTED:          0 ISSUED:          0 USEFUL:          0 USELESS:          0
cpu0_L2C AVERAGE MISS LATENCY: 885.4 cycles
cpu0_STLB TOTAL        ACCESS:    1046927 HIT:    1044965 MISS:       1962
cpu0_STLB LOAD         ACCESS:    1046927 HIT:    1044965 MISS:       1962
cpu0_STLB RFO          ACCESS:          0 HIT:          0 MISS:          0
cpu0_STLB PREFETCH     ACCESS:          0 HIT:          0 MISS:          0
cpu0_STLB WRITE        ACCESS:          0 HIT:          0 MISS:          0
cpu0_STLB TRANSLATION  ACCESS:          0 HIT:          0 MISS:          0
cpu0_STLB PREFETCH REQUESTED:          0 ISSUED:          0 USEFUL:          0 USELESS:          0
cpu0_STLB AVERAGE MISS LATENCY: 1386 cycles

DRAM Statistics

Channel 0 RQ ROW_BUFFER_HIT:      23584
  ROW_BUFFER_MISS:     103821
 AVG DBUS CONGESTED CYCLE: 3.995
WQ ROW_BUFFER_HIT: Channel 0 
  ROW_BUFFER_MISS:        865
  FULL:      51532
