WARNING: physical memory size is smaller than virtual memory size.

*** ChampSim Multicore Out-of-Order Simulator ***
Warmup Instructions: 25000000
Simulation Instructions: 25000000
Number of CPUs: 1
Page size: 4096

Off-chip DRAM Size: 4 GiB Channels: 1 Width: 64-bit Data Race: 800 MT/s
Heartbeat CPU 0 instructions: 10000001 cycles: 2536554 heartbeat IPC: 3.942 cumulative IPC: 3.942 (Simulation time: 00 hr 00 min 55 sec)
Heartbeat CPU 0 instructions: 20000001 cycles: 5079225 heartbeat IPC: 3.933 cumulative IPC: 3.938 (Simulation time: 00 hr 01 min 45 sec)
Warmup finished CPU 0 instructions: 25000000 cycles: 6354874 cumulative IPC: 3.934 (Simulation time: 00 hr 02 min 10 sec)
Warmup complete CPU 0 instructions: 25000000 cycles: 6354874 cumulative IPC: 3.934 (Simulation time: 00 hr 02 min 10 sec)
Heartbeat CPU 0 instructions: 30000003 cycles: 8189944 heartbeat IPC: 3.215 cumulative IPC: 2.725 (Simulation time: 00 hr 02 min 38 sec)
Heartbeat CPU 0 instructions: 40000000 cycles: 11854716 heartbeat IPC: 2.729 cumulative IPC: 2.727 (Simulation time: 00 hr 03 min 30 sec)
Heartbeat CPU 0 instructions: 50000001 cycles: 15525090 heartbeat IPC: 2.725 cumulative IPC: 2.726 (Simulation time: 00 hr 04 min 20 sec)
Simulation finished CPU 0 instructions: 25000001 cycles: 9170217 cumulative IPC: 2.726 (Simulation time: 00 hr 04 min 20 sec)
Simulation complete CPU 0 instructions: 25000001 cycles: 9170217 cumulative IPC: 2.726 (Simulation time: 00 hr 04 min 20 sec)

ChampSim completed all CPUs

=== Simulation ===
CPU 0 runs ./traces/zeusmp_600B.trace.xz
Region of Interest Statistics

CPU 0 cumulative IPC: 2.726 instructions: 25000001 cycles: 9170217
CPU 0 Branch Prediction Accuracy: 97.56% MPKI: 0.8748 Average ROB Occupancy at Mispredict: 197.3
Branch type MPKI
BRANCH_DIRECT_JUMP: 0
BRANCH_INDIRECT: 0
BRANCH_CONDITIONAL: 0.875
BRANCH_DIRECT_CALL: 0
BRANCH_INDIRECT_CALL: 0
BRANCH_RETURN: 0

LLC TOTAL        ACCESS:      95073 HIT:      15908 MISS:      79165
LLC LOAD         ACCESS:      79226 HIT:        143 MISS:      79083
LLC RFO          ACCESS:          0 HIT:          0 MISS:          0
LLC PREFETCH     ACCESS:          0 HIT:          0 MISS:          0
LLC WRITE        ACCESS:      15798 HIT:      15765 MISS:         33
LLC TRANSLATION  ACCESS:         49 HIT:          0 MISS:         49
LLC PREFETCH REQUESTED:          0 ISSUED:          0 USEFUL:          0 USELESS:          0
LLC AVERAGE MISS LATENCY: 217.7 cycles
cpu0_DTLB TOTAL        ACCESS:    4605675 HIT:    4591389 MISS:      14286
cpu0_DTLB LOAD         ACCESS:    4605675 HIT:    4591389 MISS:      14286
cpu0_DTLB RFO          ACCESS:          0 HIT:          0 MISS:          0
cpu0_DTLB PREFETCH     ACCESS:          0 HIT:          0 MISS:          0
cpu0_DTLB WRITE        ACCESS:          0 HIT:          0 MISS:          0
cpu0_DTLB TRANSLATION  ACCESS:          0 HIT:          0 MISS:          0
cpu0_DTLB PREFETCH REQUESTED:          0 ISSUED:          0 USEFUL:          0 USELESS:          0
cpu0_DTLB AVERAGE MISS LATENCY: 8.561 cycles
cpu0_ITLB TOTAL        ACCESS:     150524 HIT:     150524 MISS:          0
cpu0_ITLB LOAD         ACCESS:     150524 HIT:     150524 MISS:          0
cpu0_ITLB RFO          ACCESS:          0 HIT:          0 MISS:          0
cpu0_ITLB PREFETCH     ACCESS:          0 HIT:          0 MISS:          0
cpu0_ITLB WRITE        ACCESS:          0 HIT:          0 MISS:          0
cpu0_ITLB TRANSLATION  ACCESS:          0 HIT:          0 MISS:          0
cpu0_ITLB PREFETCH REQUESTED:          0 ISSUED:          0 USEFUL:          0 USELESS:          0
cpu0_ITLB AVERAGE MISS LATENCY: -nan cycles
cpu0_L1D TOTAL        ACCESS:    5859220 HIT:    5364895 MISS:     494325
cpu0_L1D LOAD         ACCESS:    4054743 HIT:    3569769 MISS:     484974
cpu0_L1D RFO          ACCESS:          0 HIT:          0 MISS:          0
cpu0_L1D PREFETCH     ACCESS:          0 HIT:          0 MISS:          0
cpu0_L1D WRITE        ACCESS:    1803266 HIT:    1795126 MISS:       8140
cpu0_L1D TRANSLATION  ACCESS:       1211 HIT:          0 MISS:       1211
cpu0_L1D PREFETCH REQUESTED:          0 ISSUED:          0 USEFUL:          0 USELESS:          0
cpu0_L1D AVERAGE MISS LATENCY: 33.03 cycles
cpu0_L1I TOTAL        ACCESS:     189304 HIT:     189304 MISS:          0
cpu0_L1I LOAD         ACCESS:     189304 HIT:     189304 MISS:          0
cpu0_L1I RFO          ACCESS:          0 HIT:          0 MISS:          0
cpu0_L1I PREFETCH     ACCESS:          0 HIT:          0 MISS:          0
cpu0_L1I WRITE        ACCESS:          0 HIT:          0 MISS:          0
cpu0_L1I TRANSLATION  ACCESS:          0 HIT:          0 MISS:          0
cpu0_L1I PREFETCH REQUESTED:          0 ISSUED:          0 USEFUL:          0 USELESS:          0
cpu0_L1I AVERAGE MISS LATENCY: -nan cycles
cpu0_L2C TOTAL        ACCESS:     152040 HIT:      72743 MISS:      79297
cpu0_L2C LOAD         ACCESS:     116193 HIT:      36967 MISS:      79226
cpu0_L2C RFO          ACCESS:       4875 HIT:       4875 MISS:          0
cpu0_L2C PREFETCH     ACCESS:          0 HIT:          0 MISS:          0
cpu0_L2C WRITE        ACCESS:      29761 HIT:      29739 MISS:         22
cpu0_L2C TRANSLATION  ACCESS:       1211 HIT:       1162 MISS:         49
cpu0_L2C PREFETCH REQUESTED:          0 ISSUED:          0 USEFUL:          0 USELESS:          0
cpu0_L2C AVERAGE MISS LATENCY: 238.3 cycles
cpu0_STLB TOTAL        ACCESS:       1545 HIT:        335 MISS:       1210
cpu0_STLB LOAD         ACCESS:       1545 HIT:        335 MISS:       1210
cpu0_STLB RFO          ACCESS:          0 HIT:          0 MISS:          0
cpu0_STLB PREFETCH     ACCESS:          0 HIT:          0 MISS:          0
cpu0_STLB WRITE        ACCESS:          0 HIT:          0 MISS:          0
cpu0_STLB TRANSLATION  ACCESS:          0 HIT:          0 MISS:          0
cpu0_STLB PREFETCH REQUESTED:          0 ISSUED:          0 USEFUL:          0 USELESS:          0
cpu0_STLB AVERAGE MISS LATENCY: 216 cycles

DRAM Statistics

Channel 0 RQ ROW_BUFFER_HIT:      59207
  ROW_BUFFER_MISS:      19923
 AVG DBUS CONGESTED CYCLE: 3.871
WQ ROW_BUFFER_HIT: Channel 0 
  ROW_BUFFER_MISS:       4029
  FULL:      10432
