WARNING: physical memory size is smaller than virtual memory size.

*** ChampSim Multicore Out-of-Order Simulator ***
Warmup Instructions: 25000000
Simulation Instructions: 25000000
Number of CPUs: 1
Page size: 4096

Off-chip DRAM Size: 4 GiB Channels: 1 Width: 64-bit Data Race: 800 MT/s
Heartbeat CPU 0 instructions: 10000002 cycles: 2593421 heartbeat IPC: 3.856 cumulative IPC: 3.856 (Simulation time: 00 hr 00 min 38 sec)
Heartbeat CPU 0 instructions: 20000000 cycles: 5184778 heartbeat IPC: 3.859 cumulative IPC: 3.857 (Simulation time: 00 hr 01 min 15 sec)
Warmup finished CPU 0 instructions: 25000003 cycles: 6468400 cumulative IPC: 3.865 (Simulation time: 00 hr 01 min 33 sec)
Warmup complete CPU 0 instructions: 25000003 cycles: 6468400 cumulative IPC: 3.865 (Simulation time: 00 hr 01 min 33 sec)
Heartbeat CPU 0 instructions: 30000001 cycles: 8392316 heartbeat IPC: 3.118 cumulative IPC: 2.599 (Simulation time: 00 hr 01 min 57 sec)
Heartbeat CPU 0 instructions: 40000000 cycles: 12340896 heartbeat IPC: 2.533 cumulative IPC: 2.554 (Simulation time: 00 hr 02 min 44 sec)
Heartbeat CPU 0 instructions: 50000000 cycles: 16306950 heartbeat IPC: 2.521 cumulative IPC: 2.541 (Simulation time: 00 hr 03 min 29 sec)
Simulation finished CPU 0 instructions: 25000001 cycles: 9838552 cumulative IPC: 2.541 (Simulation time: 00 hr 03 min 29 sec)
Simulation complete CPU 0 instructions: 25000001 cycles: 9838552 cumulative IPC: 2.541 (Simulation time: 00 hr 03 min 29 sec)

ChampSim completed all CPUs

=== Simulation ===
CPU 0 runs ./traces/zeusmp_300B.trace.xz
Region of Interest Statistics

CPU 0 cumulative IPC: 2.541 instructions: 25000001 cycles: 9838552
CPU 0 Branch Prediction Accuracy: 98.82% MPKI: 0.461 Average ROB Occupancy at Mispredict: 211.6
Branch type MPKI
BRANCH_DIRECT_JUMP: 0.0227
BRANCH_INDIRECT: 0
BRANCH_CONDITIONAL: 0.438
BRANCH_DIRECT_CALL: 0
BRANCH_INDIRECT_CALL: 0
BRANCH_RETURN: 0

LLC TOTAL        ACCESS:     163058 HIT:      93379 MISS:      69679
LLC LOAD         ACCESS:      25060 HIT:       8929 MISS:      16131
LLC RFO          ACCESS:      38452 HIT:      19979 MISS:      18473
LLC PREFETCH     ACCESS:      58460 HIT:      24749 MISS:      33711
LLC WRITE        ACCESS:      39529 HIT:      39231 MISS:        298
LLC TRANSLATION  ACCESS:       1557 HIT:        491 MISS:       1066
LLC PREFETCH REQUESTED:          0 ISSUED:          0 USEFUL:          0 USELESS:          0
LLC AVERAGE MISS LATENCY: 553.5 cycles
cpu0_DTLB TOTAL        ACCESS:    4256138 HIT:    3942854 MISS:     313284
cpu0_DTLB LOAD         ACCESS:    4256138 HIT:    3942854 MISS:     313284
cpu0_DTLB RFO          ACCESS:          0 HIT:          0 MISS:          0
cpu0_DTLB PREFETCH     ACCESS:          0 HIT:          0 MISS:          0
cpu0_DTLB WRITE        ACCESS:          0 HIT:          0 MISS:          0
cpu0_DTLB TRANSLATION  ACCESS:          0 HIT:          0 MISS:          0
cpu0_DTLB PREFETCH REQUESTED:          0 ISSUED:          0 USEFUL:          0 USELESS:          0
cpu0_DTLB AVERAGE MISS LATENCY: 9.523 cycles
cpu0_ITLB TOTAL        ACCESS:      86393 HIT:      86393 MISS:          0
cpu0_ITLB LOAD         ACCESS:      86393 HIT:      86393 MISS:          0
cpu0_ITLB RFO          ACCESS:          0 HIT:          0 MISS:          0
cpu0_ITLB PREFETCH     ACCESS:          0 HIT:          0 MISS:          0
cpu0_ITLB WRITE        ACCESS:          0 HIT:          0 MISS:          0
cpu0_ITLB TRANSLATION  ACCESS:          0 HIT:          0 MISS:          0
cpu0_ITLB PREFETCH REQUESTED:          0 ISSUED:          0 USEFUL:          0 USELESS:          0
cpu0_ITLB AVERAGE MISS LATENCY: -nan cycles
cpu0_L1D TOTAL        ACCESS:    6874403 HIT:    5186141 MISS:    1688262
cpu0_L1D LOAD         ACCESS:    3177046 HIT:    2596048 MISS:     580998
cpu0_L1D RFO          ACCESS:          0 HIT:          0 MISS:          0
cpu0_L1D PREFETCH     ACCESS:    1548431 HIT:    1105402 MISS:     443029
cpu0_L1D WRITE        ACCESS:    2146894 HIT:    1484672 MISS:     662222
cpu0_L1D TRANSLATION  ACCESS:       2032 HIT:         19 MISS:       2013
cpu0_L1D PREFETCH REQUESTED:    3592122 ISSUED:    1548430 USEFUL:      70970 USELESS:     224714
cpu0_L1D AVERAGE MISS LATENCY: 27.48 cycles
cpu0_L1I TOTAL        ACCESS:     110398 HIT:     110398 MISS:          0
cpu0_L1I LOAD         ACCESS:     110398 HIT:     110398 MISS:          0
cpu0_L1I RFO          ACCESS:          0 HIT:          0 MISS:          0
cpu0_L1I PREFETCH     ACCESS:          0 HIT:          0 MISS:          0
cpu0_L1I WRITE        ACCESS:          0 HIT:          0 MISS:          0
cpu0_L1I TRANSLATION  ACCESS:          0 HIT:          0 MISS:          0
cpu0_L1I PREFETCH REQUESTED:          0 ISSUED:          0 USEFUL:          0 USELESS:          0
cpu0_L1I AVERAGE MISS LATENCY: -nan cycles
cpu0_L2C TOTAL        ACCESS:    1353179 HIT:    1206931 MISS:     146248
cpu0_L2C LOAD         ACCESS:     462173 HIT:     432981 MISS:      29192
cpu0_L2C RFO          ACCESS:     200851 HIT:     162399 MISS:      38452
cpu0_L2C PREFETCH     ACCESS:     423411 HIT:     346372 MISS:      77039
cpu0_L2C WRITE        ACCESS:     264732 HIT:     264724 MISS:          8
cpu0_L2C TRANSLATION  ACCESS:       2012 HIT:        455 MISS:       1557
cpu0_L2C PREFETCH REQUESTED:     127562 ISSUED:     127562 USEFUL:       4984 USELESS:       6184
cpu0_L2C AVERAGE MISS LATENCY: 280.1 cycles
cpu0_STLB TOTAL        ACCESS:     275602 HIT:     273910 MISS:       1692
cpu0_STLB LOAD         ACCESS:     275602 HIT:     273910 MISS:       1692
cpu0_STLB RFO          ACCESS:          0 HIT:          0 MISS:          0
cpu0_STLB PREFETCH     ACCESS:          0 HIT:          0 MISS:          0
cpu0_STLB WRITE        ACCESS:          0 HIT:          0 MISS:          0
cpu0_STLB TRANSLATION  ACCESS:          0 HIT:          0 MISS:          0
cpu0_STLB PREFETCH REQUESTED:          0 ISSUED:          0 USEFUL:          0 USELESS:          0
cpu0_STLB AVERAGE MISS LATENCY: 548.5 cycles

DRAM Statistics

Channel 0 RQ ROW_BUFFER_HIT:      15702
  ROW_BUFFER_MISS:      53679
 AVG DBUS CONGESTED CYCLE: 3.922
WQ ROW_BUFFER_HIT: Channel 0 
  ROW_BUFFER_MISS:        677
  FULL:      17938
